REMARK  Name = ../refined-set-2016/3fzn/3fzn_pocket.pdb
REMARK  268 active torsions:
REMARK  status: ('A' for Active; 'I' for Inactive)
REMARK    1  A    between atoms: _1  and  _3
REMARK    2  A    between atoms: _3  and  _4
REMARK    3  A    between atoms: _6  and  _8
REMARK    4  A    between atoms: _8  and  _9
REMARK    5  A    between atoms: _8  and  _11
REMARK    6  A    between atoms: _11  and  _12
REMARK    7  A    between atoms: _17  and  _19
REMARK    8  A    between atoms: _19  and  _20
REMARK    9  A    between atoms: _19  and  _22
REMARK   10  A    between atoms: _22  and  _23
REMARK   11  A    between atoms: _25  and  _27
REMARK   12  A    between atoms: _27  and  _28
REMARK   13  A    between atoms: _27  and  _30
REMARK   14  A    between atoms: _30  and  _31
REMARK   15  A    between atoms: _36  and  _38
REMARK   16  A    between atoms: _38  and  _39
REMARK   17  A    between atoms: _38  and  _41
REMARK   18  A    between atoms: _41  and  _42
REMARK   19  A    between atoms: _42  and  _43
REMARK   20  A    between atoms: _49  and  _50
REMARK   21  A    between atoms: _55  and  _57
REMARK   22  A    between atoms: _57  and  _58
REMARK   23  A    between atoms: _57  and  _60
REMARK   24  A    between atoms: _60  and  _61
REMARK   25  A    between atoms: _66  and  _68
REMARK   26  A    between atoms: _68  and  _69
REMARK   27  A    between atoms: _68  and  _71
REMARK   28  A    between atoms: _71  and  _72
REMARK   29  A    between atoms: _72  and  _73
REMARK   30  A    between atoms: _76  and  _78
REMARK   31  A    between atoms: _78  and  _79
REMARK   32  A    between atoms: _78  and  _81
REMARK   33  A    between atoms: _81  and  _82
REMARK   34  A    between atoms: _84  and  _86
REMARK   35  A    between atoms: _86  and  _87
REMARK   36  A    between atoms: _86  and  _89
REMARK   37  A    between atoms: _89  and  _90
REMARK   38  A    between atoms: _93  and  _95
REMARK   39  A    between atoms: _95  and  _96
REMARK   40  A    between atoms: _95  and  _98
REMARK   41  A    between atoms: _98  and  _99
REMARK   42  A    between atoms: _101  and  _103
REMARK   43  A    between atoms: _103  and  _104
REMARK   44  A    between atoms: _103  and  _106
REMARK   45  A    between atoms: _106  and  _107
REMARK   46  A    between atoms: _110  and  _112
REMARK   47  A    between atoms: _112  and  _113
REMARK   48  A    between atoms: _112  and  _115
REMARK   49  A    between atoms: _115  and  _116
REMARK   50  A    between atoms: _119  and  _121
REMARK   51  A    between atoms: _121  and  _122
REMARK   52  A    between atoms: _121  and  _124
REMARK   53  A    between atoms: _124  and  _125
REMARK   54  A    between atoms: _131  and  _133
REMARK   55  A    between atoms: _133  and  _134
REMARK   56  A    between atoms: _133  and  _136
REMARK   57  A    between atoms: _138  and  _140
REMARK   58  A    between atoms: _140  and  _141
REMARK   59  A    between atoms: _144  and  _146
REMARK   60  A    between atoms: _146  and  _147
REMARK   61  A    between atoms: _149  and  _151
REMARK   62  A    between atoms: _151  and  _152
REMARK   63  A    between atoms: _154  and  _156
REMARK   64  A    between atoms: _156  and  _157
REMARK   65  A    between atoms: _156  and  _159
REMARK   66  A    between atoms: _159  and  _160
REMARK   67  A    between atoms: _163  and  _165
REMARK   68  A    between atoms: _165  and  _166
REMARK   69  A    between atoms: _168  and  _170
REMARK   70  A    between atoms: _170  and  _171
REMARK   71  A    between atoms: _170  and  _173
REMARK   72  A    between atoms: _173  and  _174
REMARK   73  A    between atoms: _180  and  _182
REMARK   74  A    between atoms: _182  and  _183
REMARK   75  A    between atoms: _182  and  _185
REMARK   76  A    between atoms: _188  and  _190
REMARK   77  A    between atoms: _190  and  _191
REMARK   78  A    between atoms: _190  and  _193
REMARK   79  A    between atoms: _193  and  _194
REMARK   80  A    between atoms: _197  and  _199
REMARK   81  A    between atoms: _199  and  _200
REMARK   82  A    between atoms: _202  and  _204
REMARK   83  A    between atoms: _204  and  _205
REMARK   84  A    between atoms: _204  and  _207
REMARK   85  A    between atoms: _207  and  _208
REMARK   86  A    between atoms: _208  and  _209
REMARK   87  A    between atoms: _209  and  MG_664
REMARK   88  A    between atoms: _211  and  _213
REMARK   89  A    between atoms: _213  and  _214
REMARK   90  A    between atoms: _216  and  _218
REMARK   91  A    between atoms: _218  and  _219
REMARK   92  A    between atoms: _218  and  _221
REMARK   93  A    between atoms: _221  and  _222
REMARK   94  A    between atoms: _224  and  _226
REMARK   95  A    between atoms: _226  and  _227
REMARK   96  A    between atoms: _230  and  _232
REMARK   97  A    between atoms: _232  and  _233
REMARK   98  A    between atoms: _232  and  _235
REMARK   99  A    between atoms: _235  and  _236
REMARK  100  A    between atoms: _241  and  _243
REMARK  101  A    between atoms: _243  and  _244
REMARK  102  A    between atoms: _243  and  _246
REMARK  103  A    between atoms: _246  and  _247
REMARK  104  A    between atoms: _252  and  _253
REMARK  105  A    between atoms: _255  and  _257
REMARK  106  A    between atoms: _257  and  _258
REMARK  107  A    between atoms: _257  and  _260
REMARK  108  A    between atoms: _260  and  _261
REMARK  109  A    between atoms: _264  and  _266
REMARK  110  A    between atoms: _266  and  _267
REMARK  111  A    between atoms: _266  and  _269
REMARK  112  A    between atoms: _269  and  _270
REMARK  113  A    between atoms: _270  and  _271
REMARK  114  A    between atoms: _273  and  _275
REMARK  115  A    between atoms: _275  and  _276
REMARK  116  A    between atoms: _275  and  _278
REMARK  117  A    between atoms: _278  and  _279
REMARK  118  A    between atoms: _284  and  _286
REMARK  119  A    between atoms: _286  and  _287
REMARK  120  A    between atoms: _286  and  _289
REMARK  121  A    between atoms: _289  and  _290
REMARK  122  A    between atoms: _290  and  _291
REMARK  123  A    between atoms: _290  and  _292
REMARK  124  A    between atoms: _291  and  MG_664
REMARK  125  A    between atoms: _295  and  _297
REMARK  126  A    between atoms: _297  and  _298
REMARK  127  A    between atoms: _300  and  _302
REMARK  128  A    between atoms: _302  and  _303
REMARK  129  A    between atoms: _302  and  _305
REMARK  130  A    between atoms: _305  and  _306
REMARK  131  A    between atoms: _309  and  _311
REMARK  132  A    between atoms: _311  and  _312
REMARK  133  A    between atoms: _311  and  _314
REMARK  134  A    between atoms: _314  and  _315
REMARK  135  A    between atoms: _320  and  _321
REMARK  136  A    between atoms: _323  and  _325
REMARK  137  A    between atoms: _325  and  _326
REMARK  138  A    between atoms: _328  and  _330
REMARK  139  A    between atoms: _330  and  _331
REMARK  140  A    between atoms: _334  and  _336
REMARK  141  A    between atoms: _336  and  _337
REMARK  142  A    between atoms: _336  and  _339
REMARK  143  A    between atoms: _339  and  _340
REMARK  144  A    between atoms: _343  and  _345
REMARK  145  A    between atoms: _345  and  _346
REMARK  146  A    between atoms: _345  and  _348
REMARK  147  A    between atoms: _348  and  _349
REMARK  148  A    between atoms: _349  and  _350
REMARK  149  A    between atoms: _350  and  _351
REMARK  150  A    between atoms: _360  and  _362
REMARK  151  A    between atoms: _362  and  _363
REMARK  152  A    between atoms: _362  and  _365
REMARK  153  A    between atoms: _365  and  _366
REMARK  154  A    between atoms: _376  and  _378
REMARK  155  A    between atoms: _378  and  _379
REMARK  156  A    between atoms: _378  and  _381
REMARK  157  A    between atoms: _381  and  _382
REMARK  158  A    between atoms: _388  and  _390
REMARK  159  A    between atoms: _390  and  _391
REMARK  160  A    between atoms: _394  and  _396
REMARK  161  A    between atoms: _396  and  _397
REMARK  162  A    between atoms: _399  and  _401
REMARK  163  A    between atoms: _401  and  _402
REMARK  164  A    between atoms: _401  and  _404
REMARK  165  A    between atoms: _404  and  _405
REMARK  166  A    between atoms: _408  and  _410
REMARK  167  A    between atoms: _410  and  _411
REMARK  168  A    between atoms: _410  and  _413
REMARK  169  A    between atoms: _416  and  _418
REMARK  170  A    between atoms: _418  and  _419
REMARK  171  A    between atoms: _418  and  _421
REMARK  172  A    between atoms: _421  and  _422
REMARK  173  A    between atoms: _428  and  _430
REMARK  174  A    between atoms: _430  and  _431
REMARK  175  A    between atoms: _430  and  _433
REMARK  176  A    between atoms: _433  and  _434
REMARK  177  A    between atoms: _437  and  _439
REMARK  178  A    between atoms: _439  and  _440
REMARK  179  A    between atoms: _439  and  _442
REMARK  180  A    between atoms: _445  and  _447
REMARK  181  A    between atoms: _447  and  _448
REMARK  182  A    between atoms: _447  and  _450
REMARK  183  A    between atoms: _450  and  _451
REMARK  184  A    between atoms: _457  and  _458
REMARK  185  A    between atoms: _463  and  _465
REMARK  186  A    between atoms: _465  and  _466
REMARK  187  A    between atoms: _468  and  _470
REMARK  188  A    between atoms: _470  and  _471
REMARK  189  A    between atoms: _470  and  _473
REMARK  190  A    between atoms: _473  and  _474
REMARK  191  A    between atoms: _476  and  _478
REMARK  192  A    between atoms: _478  and  _479
REMARK  193  A    between atoms: _478  and  _481
REMARK  194  A    between atoms: _481  and  _482
REMARK  195  A    between atoms: _487  and  _489
REMARK  196  A    between atoms: _489  and  _490
REMARK  197  A    between atoms: _489  and  _492
REMARK  198  A    between atoms: _492  and  _493
REMARK  199  A    between atoms: _493  and  _494
REMARK  200  A    between atoms: _497  and  _499
REMARK  201  A    between atoms: _499  and  _500
REMARK  202  A    between atoms: _499  and  _502
REMARK  203  A    between atoms: _502  and  _503
REMARK  204  A    between atoms: _506  and  _508
REMARK  205  A    between atoms: _508  and  _509
REMARK  206  A    between atoms: _508  and  _511
REMARK  207  A    between atoms: _511  and  _512
REMARK  208  A    between atoms: _515  and  _517
REMARK  209  A    between atoms: _517  and  _518
REMARK  210  A    between atoms: _521  and  _523
REMARK  211  A    between atoms: _523  and  _524
REMARK  212  A    between atoms: _523  and  _526
REMARK  213  A    between atoms: _526  and  _527
REMARK  214  A    between atoms: _530  and  _532
REMARK  215  A    between atoms: _532  and  _533
REMARK  216  A    between atoms: _532  and  _535
REMARK  217  A    between atoms: _535  and  _536
REMARK  218  A    between atoms: _536  and  _537
REMARK  219  A    between atoms: _542  and  _544
REMARK  220  A    between atoms: _544  and  _545
REMARK  221  A    between atoms: _544  and  _547
REMARK  222  A    between atoms: _547  and  _548
REMARK  223  A    between atoms: _548  and  _549
REMARK  224  A    between atoms: _552  and  _554
REMARK  225  A    between atoms: _554  and  _555
REMARK  226  A    between atoms: _558  and  _560
REMARK  227  A    between atoms: _560  and  _561
REMARK  228  A    between atoms: _560  and  _563
REMARK  229  A    between atoms: _563  and  _564
REMARK  230  A    between atoms: _567  and  _569
REMARK  231  A    between atoms: _569  and  _570
REMARK  232  A    between atoms: _569  and  _572
REMARK  233  A    between atoms: _572  and  _573
REMARK  234  A    between atoms: _578  and  _580
REMARK  235  A    between atoms: _580  and  _581
REMARK  236  A    between atoms: _580  and  _583
REMARK  237  A    between atoms: _583  and  _584
REMARK  238  A    between atoms: _586  and  _588
REMARK  239  A    between atoms: _588  and  _589
REMARK  240  A    between atoms: _592  and  _594
REMARK  241  A    between atoms: _594  and  _595
REMARK  242  A    between atoms: _598  and  _600
REMARK  243  A    between atoms: _600  and  _601
REMARK  244  A    between atoms: _603  and  _605
REMARK  245  A    between atoms: _605  and  _606
REMARK  246  A    between atoms: _605  and  _608
REMARK  247  A    between atoms: _608  and  _609
REMARK  248  A    between atoms: _612  and  _614
REMARK  249  A    between atoms: _614  and  _615
REMARK  250  A    between atoms: _617  and  _619
REMARK  251  A    between atoms: _619  and  _620
REMARK  252  A    between atoms: _619  and  _622
REMARK  253  A    between atoms: _622  and  _623
REMARK  254  A    between atoms: _628  and  _630
REMARK  255  A    between atoms: _630  and  _631
REMARK  256  A    between atoms: _634  and  _636
REMARK  257  A    between atoms: _636  and  _637
REMARK  258  A    between atoms: _636  and  _639
REMARK  259  A    between atoms: _639  and  _640
REMARK  260  A    between atoms: _640  and  _641
REMARK  261  A    between atoms: _646  and  _648
REMARK  262  A    between atoms: _648  and  _649
REMARK  263  A    between atoms: _648  and  _651
REMARK  264  A    between atoms: _651  and  _652
REMARK  265  A    between atoms: _655  and  _657
REMARK  266  A    between atoms: _657  and  _658
REMARK  267  A    between atoms: _657  and  _660
REMARK  268  A    between atoms: _660  and  _661
REMARK                            x       y       z     vdW  Elec       q    Type
REMARK                         _______ _______ _______ _____ _____    ______ ____
ROOT
ATOM      1  CA  GLY A   1      96.550  47.984  88.172  0.00  0.00    +0.156 C 
ENDROOT
BRANCH   1   2
ATOM      2  N   GLY A   1      95.200  48.575  87.998  0.00  0.00    -0.238 NA
ATOM      3  H   GLY A   1      94.606  48.779  88.827  0.00  0.00    +0.142 HD
ENDBRANCH   1   2
BRANCH   1   4
ATOM      4  C   GLY A   1      96.627  46.562  87.626  0.00  0.00    +0.226 C 
ATOM      5  O   GLY A   1      97.620  46.150  86.958  0.00  0.00    -0.287 OA
ENDBRANCH   1   4
TORSDOF 2
REMARK  Name = ../refined-set-2016/3fzn/3fzn_pocket.pdb
REMARK  268 active torsions:
REMARK  status: ('A' for Active; 'I' for Inactive)
REMARK    1  A    between atoms: _1  and  _3
REMARK    2  A    between atoms: _3  and  _4
REMARK    3  A    between atoms: _6  and  _8
REMARK    4  A    between atoms: _8  and  _9
REMARK    5  A    between atoms: _8  and  _11
REMARK    6  A    between atoms: _11  and  _12
REMARK    7  A    between atoms: _17  and  _19
REMARK    8  A    between atoms: _19  and  _20
REMARK    9  A    between atoms: _19  and  _22
REMARK   10  A    between atoms: _22  and  _23
REMARK   11  A    between atoms: _25  and  _27
REMARK   12  A    between atoms: _27  and  _28
REMARK   13  A    between atoms: _27  and  _30
REMARK   14  A    between atoms: _30  and  _31
REMARK   15  A    between atoms: _36  and  _38
REMARK   16  A    between atoms: _38  and  _39
REMARK   17  A    between atoms: _38  and  _41
REMARK   18  A    between atoms: _41  and  _42
REMARK   19  A    between atoms: _42  and  _43
REMARK   20  A    between atoms: _49  and  _50
REMARK   21  A    between atoms: _55  and  _57
REMARK   22  A    between atoms: _57  and  _58
REMARK   23  A    between atoms: _57  and  _60
REMARK   24  A    between atoms: _60  and  _61
REMARK   25  A    between atoms: _66  and  _68
REMARK   26  A    between atoms: _68  and  _69
REMARK   27  A    between atoms: _68  and  _71
REMARK   28  A    between atoms: _71  and  _72
REMARK   29  A    between atoms: _72  and  _73
REMARK   30  A    between atoms: _76  and  _78
REMARK   31  A    between atoms: _78  and  _79
REMARK   32  A    between atoms: _78  and  _81
REMARK   33  A    between atoms: _81  and  _82
REMARK   34  A    between atoms: _84  and  _86
REMARK   35  A    between atoms: _86  and  _87
REMARK   36  A    between atoms: _86  and  _89
REMARK   37  A    between atoms: _89  and  _90
REMARK   38  A    between atoms: _93  and  _95
REMARK   39  A    between atoms: _95  and  _96
REMARK   40  A    between atoms: _95  and  _98
REMARK   41  A    between atoms: _98  and  _99
REMARK   42  A    between atoms: _101  and  _103
REMARK   43  A    between atoms: _103  and  _104
REMARK   44  A    between atoms: _103  and  _106
REMARK   45  A    between atoms: _106  and  _107
REMARK   46  A    between atoms: _110  and  _112
REMARK   47  A    between atoms: _112  and  _113
REMARK   48  A    between atoms: _112  and  _115
REMARK   49  A    between atoms: _115  and  _116
REMARK   50  A    between atoms: _119  and  _121
REMARK   51  A    between atoms: _121  and  _122
REMARK   52  A    between atoms: _121  and  _124
REMARK   53  A    between atoms: _124  and  _125
REMARK   54  A    between atoms: _131  and  _133
REMARK   55  A    between atoms: _133  and  _134
REMARK   56  A    between atoms: _133  and  _136
REMARK   57  A    between atoms: _138  and  _140
REMARK   58  A    between atoms: _140  and  _141
REMARK   59  A    between atoms: _144  and  _146
REMARK   60  A    between atoms: _146  and  _147
REMARK   61  A    between atoms: _149  and  _151
REMARK   62  A    between atoms: _151  and  _152
REMARK   63  A    between atoms: _154  and  _156
REMARK   64  A    between atoms: _156  and  _157
REMARK   65  A    between atoms: _156  and  _159
REMARK   66  A    between atoms: _159  and  _160
REMARK   67  A    between atoms: _163  and  _165
REMARK   68  A    between atoms: _165  and  _166
REMARK   69  A    between atoms: _168  and  _170
REMARK   70  A    between atoms: _170  and  _171
REMARK   71  A    between atoms: _170  and  _173
REMARK   72  A    between atoms: _173  and  _174
REMARK   73  A    between atoms: _180  and  _182
REMARK   74  A    between atoms: _182  and  _183
REMARK   75  A    between atoms: _182  and  _185
REMARK   76  A    between atoms: _188  and  _190
REMARK   77  A    between atoms: _190  and  _191
REMARK   78  A    between atoms: _190  and  _193
REMARK   79  A    between atoms: _193  and  _194
REMARK   80  A    between atoms: _197  and  _199
REMARK   81  A    between atoms: _199  and  _200
REMARK   82  A    between atoms: _202  and  _204
REMARK   83  A    between atoms: _204  and  _205
REMARK   84  A    between atoms: _204  and  _207
REMARK   85  A    between atoms: _207  and  _208
REMARK   86  A    between atoms: _208  and  _209
REMARK   87  A    between atoms: _209  and  MG_664
REMARK   88  A    between atoms: _211  and  _213
REMARK   89  A    between atoms: _213  and  _214
REMARK   90  A    between atoms: _216  and  _218
REMARK   91  A    between atoms: _218  and  _219
REMARK   92  A    between atoms: _218  and  _221
REMARK   93  A    between atoms: _221  and  _222
REMARK   94  A    between atoms: _224  and  _226
REMARK   95  A    between atoms: _226  and  _227
REMARK   96  A    between atoms: _230  and  _232
REMARK   97  A    between atoms: _232  and  _233
REMARK   98  A    between atoms: _232  and  _235
REMARK   99  A    between atoms: _235  and  _236
REMARK  100  A    between atoms: _241  and  _243
REMARK  101  A    between atoms: _243  and  _244
REMARK  102  A    between atoms: _243  and  _246
REMARK  103  A    between atoms: _246  and  _247
REMARK  104  A    between atoms: _252  and  _253
REMARK  105  A    between atoms: _255  and  _257
REMARK  106  A    between atoms: _257  and  _258
REMARK  107  A    between atoms: _257  and  _260
REMARK  108  A    between atoms: _260  and  _261
REMARK  109  A    between atoms: _264  and  _266
REMARK  110  A    between atoms: _266  and  _267
REMARK  111  A    between atoms: _266  and  _269
REMARK  112  A    between atoms: _269  and  _270
REMARK  113  A    between atoms: _270  and  _271
REMARK  114  A    between atoms: _273  and  _275
REMARK  115  A    between atoms: _275  and  _276
REMARK  116  A    between atoms: _275  and  _278
REMARK  117  A    between atoms: _278  and  _279
REMARK  118  A    between atoms: _284  and  _286
REMARK  119  A    between atoms: _286  and  _287
REMARK  120  A    between atoms: _286  and  _289
REMARK  121  A    between atoms: _289  and  _290
REMARK  122  A    between atoms: _290  and  _291
REMARK  123  A    between atoms: _290  and  _292
REMARK  124  A    between atoms: _291  and  MG_664
REMARK  125  A    between atoms: _295  and  _297
REMARK  126  A    between atoms: _297  and  _298
REMARK  127  A    between atoms: _300  and  _302
REMARK  128  A    between atoms: _302  and  _303
REMARK  129  A    between atoms: _302  and  _305
REMARK  130  A    between atoms: _305  and  _306
REMARK  131  A    between atoms: _309  and  _311
REMARK  132  A    between atoms: _311  and  _312
REMARK  133  A    between atoms: _311  and  _314
REMARK  134  A    between atoms: _314  and  _315
REMARK  135  A    between atoms: _320  and  _321
REMARK  136  A    between atoms: _323  and  _325
REMARK  137  A    between atoms: _325  and  _326
REMARK  138  A    between atoms: _328  and  _330
REMARK  139  A    between atoms: _330  and  _331
REMARK  140  A    between atoms: _334  and  _336
REMARK  141  A    between atoms: _336  and  _337
REMARK  142  A    between atoms: _336  and  _339
REMARK  143  A    between atoms: _339  and  _340
REMARK  144  A    between atoms: _343  and  _345
REMARK  145  A    between atoms: _345  and  _346
REMARK  146  A    between atoms: _345  and  _348
REMARK  147  A    between atoms: _348  and  _349
REMARK  148  A    between atoms: _349  and  _350
REMARK  149  A    between atoms: _350  and  _351
REMARK  150  A    between atoms: _360  and  _362
REMARK  151  A    between atoms: _362  and  _363
REMARK  152  A    between atoms: _362  and  _365
REMARK  153  A    between atoms: _365  and  _366
REMARK  154  A    between atoms: _376  and  _378
REMARK  155  A    between atoms: _378  and  _379
REMARK  156  A    between atoms: _378  and  _381
REMARK  157  A    between atoms: _381  and  _382
REMARK  158  A    between atoms: _388  and  _390
REMARK  159  A    between atoms: _390  and  _391
REMARK  160  A    between atoms: _394  and  _396
REMARK  161  A    between atoms: _396  and  _397
REMARK  162  A    between atoms: _399  and  _401
REMARK  163  A    between atoms: _401  and  _402
REMARK  164  A    between atoms: _401  and  _404
REMARK  165  A    between atoms: _404  and  _405
REMARK  166  A    between atoms: _408  and  _410
REMARK  167  A    between atoms: _410  and  _411
REMARK  168  A    between atoms: _410  and  _413
REMARK  169  A    between atoms: _416  and  _418
REMARK  170  A    between atoms: _418  and  _419
REMARK  171  A    between atoms: _418  and  _421
REMARK  172  A    between atoms: _421  and  _422
REMARK  173  A    between atoms: _428  and  _430
REMARK  174  A    between atoms: _430  and  _431
REMARK  175  A    between atoms: _430  and  _433
REMARK  176  A    between atoms: _433  and  _434
REMARK  177  A    between atoms: _437  and  _439
REMARK  178  A    between atoms: _439  and  _440
REMARK  179  A    between atoms: _439  and  _442
REMARK  180  A    between atoms: _445  and  _447
REMARK  181  A    between atoms: _447  and  _448
REMARK  182  A    between atoms: _447  and  _450
REMARK  183  A    between atoms: _450  and  _451
REMARK  184  A    between atoms: _457  and  _458
REMARK  185  A    between atoms: _463  and  _465
REMARK  186  A    between atoms: _465  and  _466
REMARK  187  A    between atoms: _468  and  _470
REMARK  188  A    between atoms: _470  and  _471
REMARK  189  A    between atoms: _470  and  _473
REMARK  190  A    between atoms: _473  and  _474
REMARK  191  A    between atoms: _476  and  _478
REMARK  192  A    between atoms: _478  and  _479
REMARK  193  A    between atoms: _478  and  _481
REMARK  194  A    between atoms: _481  and  _482
REMARK  195  A    between atoms: _487  and  _489
REMARK  196  A    between atoms: _489  and  _490
REMARK  197  A    between atoms: _489  and  _492
REMARK  198  A    between atoms: _492  and  _493
REMARK  199  A    between atoms: _493  and  _494
REMARK  200  A    between atoms: _497  and  _499
REMARK  201  A    between atoms: _499  and  _500
REMARK  202  A    between atoms: _499  and  _502
REMARK  203  A    between atoms: _502  and  _503
REMARK  204  A    between atoms: _506  and  _508
REMARK  205  A    between atoms: _508  and  _509
REMARK  206  A    between atoms: _508  and  _511
REMARK  207  A    between atoms: _511  and  _512
REMARK  208  A    between atoms: _515  and  _517
REMARK  209  A    between atoms: _517  and  _518
REMARK  210  A    between atoms: _521  and  _523
REMARK  211  A    between atoms: _523  and  _524
REMARK  212  A    between atoms: _523  and  _526
REMARK  213  A    between atoms: _526  and  _527
REMARK  214  A    between atoms: _530  and  _532
REMARK  215  A    between atoms: _532  and  _533
REMARK  216  A    between atoms: _532  and  _535
REMARK  217  A    between atoms: _535  and  _536
REMARK  218  A    between atoms: _536  and  _537
REMARK  219  A    between atoms: _542  and  _544
REMARK  220  A    between atoms: _544  and  _545
REMARK  221  A    between atoms: _544  and  _547
REMARK  222  A    between atoms: _547  and  _548
REMARK  223  A    between atoms: _548  and  _549
REMARK  224  A    between atoms: _552  and  _554
REMARK  225  A    between atoms: _554  and  _555
REMARK  226  A    between atoms: _558  and  _560
REMARK  227  A    between atoms: _560  and  _561
REMARK  228  A    between atoms: _560  and  _563
REMARK  229  A    between atoms: _563  and  _564
REMARK  230  A    between atoms: _567  and  _569
REMARK  231  A    between atoms: _569  and  _570
REMARK  232  A    between atoms: _569  and  _572
REMARK  233  A    between atoms: _572  and  _573
REMARK  234  A    between atoms: _578  and  _580
REMARK  235  A    between atoms: _580  and  _581
REMARK  236  A    between atoms: _580  and  _583
REMARK  237  A    between atoms: _583  and  _584
REMARK  238  A    between atoms: _586  and  _588
REMARK  239  A    between atoms: _588  and  _589
REMARK  240  A    between atoms: _592  and  _594
REMARK  241  A    between atoms: _594  and  _595
REMARK  242  A    between atoms: _598  and  _600
REMARK  243  A    between atoms: _600  and  _601
REMARK  244  A    between atoms: _603  and  _605
REMARK  245  A    between atoms: _605  and  _606
REMARK  246  A    between atoms: _605  and  _608
REMARK  247  A    between atoms: _608  and  _609
REMARK  248  A    between atoms: _612  and  _614
REMARK  249  A    between atoms: _614  and  _615
REMARK  250  A    between atoms: _617  and  _619
REMARK  251  A    between atoms: _619  and  _620
REMARK  252  A    between atoms: _619  and  _622
REMARK  253  A    between atoms: _622  and  _623
REMARK  254  A    between atoms: _628  and  _630
REMARK  255  A    between atoms: _630  and  _631
REMARK  256  A    between atoms: _634  and  _636
REMARK  257  A    between atoms: _636  and  _637
REMARK  258  A    between atoms: _636  and  _639
REMARK  259  A    between atoms: _639  and  _640
REMARK  260  A    between atoms: _640  and  _641
REMARK  261  A    between atoms: _646  and  _648
REMARK  262  A    between atoms: _648  and  _649
REMARK  263  A    between atoms: _648  and  _651
REMARK  264  A    between atoms: _651  and  _652
REMARK  265  A    between atoms: _655  and  _657
REMARK  266  A    between atoms: _657  and  _658
REMARK  267  A    between atoms: _657  and  _660
REMARK  268  A    between atoms: _660  and  _661
REMARK                            x       y       z     vdW  Elec       q    Type
REMARK                         _______ _______ _______ _____ _____    ______ ____
ROOT
ATOM      1  CB  ASN A   1      99.511  42.376  85.280  0.00  0.00    +0.110 C 
ENDROOT
BRANCH   1   2
ATOM      2  CG  ASN A   1     100.425  42.795  86.417  0.00  0.00    +0.221 C 
ATOM      3  ND2 ASN A   1      99.902  42.750  87.657  0.00  0.00    -0.329 N 
ATOM      4 HD21 ASN A   1     100.476  43.041  88.474  0.00  0.00    +0.145 HD
ATOM      5 HD22 ASN A   1      98.924  42.424  87.798  0.00  0.00    +0.145 HD
ATOM      6  OD1 ASN A   1     101.600  43.181  86.195  0.00  0.00    -0.275 OA
ENDBRANCH   1   2
BRANCH   1   7
ATOM      7  CA  ASN A   1      99.681  43.268  84.018  0.00  0.00    +0.142 C 
BRANCH   7   8
ATOM      8  N   ASN A   1      99.055  44.582  84.223  0.00  0.00    -0.239 NA
ATOM      9  H   ASN A   1      98.531  44.785  85.098  0.00  0.00    +0.142 HD
ENDBRANCH   7   8
BRANCH   7  10
ATOM     10  C   ASN A   1      99.136  42.522  82.792  0.00  0.00    +0.225 C 
ATOM     11  O   ASN A   1      99.898  41.950  81.976  0.00  0.00    -0.287 OA
ENDBRANCH   7  10
ENDBRANCH   1   7
TORSDOF 4
REMARK  Name = ../refined-set-2016/3fzn/3fzn_pocket.pdb
REMARK  268 active torsions:
REMARK  status: ('A' for Active; 'I' for Inactive)
REMARK    1  A    between atoms: _1  and  _3
REMARK    2  A    between atoms: _3  and  _4
REMARK    3  A    between atoms: _6  and  _8
REMARK    4  A    between atoms: _8  and  _9
REMARK    5  A    between atoms: _8  and  _11
REMARK    6  A    between atoms: _11  and  _12
REMARK    7  A    between atoms: _17  and  _19
REMARK    8  A    between atoms: _19  and  _20
REMARK    9  A    between atoms: _19  and  _22
REMARK   10  A    between atoms: _22  and  _23
REMARK   11  A    between atoms: _25  and  _27
REMARK   12  A    between atoms: _27  and  _28
REMARK   13  A    between atoms: _27  and  _30
REMARK   14  A    between atoms: _30  and  _31
REMARK   15  A    between atoms: _36  and  _38
REMARK   16  A    between atoms: _38  and  _39
REMARK   17  A    between atoms: _38  and  _41
REMARK   18  A    between atoms: _41  and  _42
REMARK   19  A    between atoms: _42  and  _43
REMARK   20  A    between atoms: _49  and  _50
REMARK   21  A    between atoms: _55  and  _57
REMARK   22  A    between atoms: _57  and  _58
REMARK   23  A    between atoms: _57  and  _60
REMARK   24  A    between atoms: _60  and  _61
REMARK   25  A    between atoms: _66  and  _68
REMARK   26  A    between atoms: _68  and  _69
REMARK   27  A    between atoms: _68  and  _71
REMARK   28  A    between atoms: _71  and  _72
REMARK   29  A    between atoms: _72  and  _73
REMARK   30  A    between atoms: _76  and  _78
REMARK   31  A    between atoms: _78  and  _79
REMARK   32  A    between atoms: _78  and  _81
REMARK   33  A    between atoms: _81  and  _82
REMARK   34  A    between atoms: _84  and  _86
REMARK   35  A    between atoms: _86  and  _87
REMARK   36  A    between atoms: _86  and  _89
REMARK   37  A    between atoms: _89  and  _90
REMARK   38  A    between atoms: _93  and  _95
REMARK   39  A    between atoms: _95  and  _96
REMARK   40  A    between atoms: _95  and  _98
REMARK   41  A    between atoms: _98  and  _99
REMARK   42  A    between atoms: _101  and  _103
REMARK   43  A    between atoms: _103  and  _104
REMARK   44  A    between atoms: _103  and  _106
REMARK   45  A    between atoms: _106  and  _107
REMARK   46  A    between atoms: _110  and  _112
REMARK   47  A    between atoms: _112  and  _113
REMARK   48  A    between atoms: _112  and  _115
REMARK   49  A    between atoms: _115  and  _116
REMARK   50  A    between atoms: _119  and  _121
REMARK   51  A    between atoms: _121  and  _122
REMARK   52  A    between atoms: _121  and  _124
REMARK   53  A    between atoms: _124  and  _125
REMARK   54  A    between atoms: _131  and  _133
REMARK   55  A    between atoms: _133  and  _134
REMARK   56  A    between atoms: _133  and  _136
REMARK   57  A    between atoms: _138  and  _140
REMARK   58  A    between atoms: _140  and  _141
REMARK   59  A    between atoms: _144  and  _146
REMARK   60  A    between atoms: _146  and  _147
REMARK   61  A    between atoms: _149  and  _151
REMARK   62  A    between atoms: _151  and  _152
REMARK   63  A    between atoms: _154  and  _156
REMARK   64  A    between atoms: _156  and  _157
REMARK   65  A    between atoms: _156  and  _159
REMARK   66  A    between atoms: _159  and  _160
REMARK   67  A    between atoms: _163  and  _165
REMARK   68  A    between atoms: _165  and  _166
REMARK   69  A    between atoms: _168  and  _170
REMARK   70  A    between atoms: _170  and  _171
REMARK   71  A    between atoms: _170  and  _173
REMARK   72  A    between atoms: _173  and  _174
REMARK   73  A    between atoms: _180  and  _182
REMARK   74  A    between atoms: _182  and  _183
REMARK   75  A    between atoms: _182  and  _185
REMARK   76  A    between atoms: _188  and  _190
REMARK   77  A    between atoms: _190  and  _191
REMARK   78  A    between atoms: _190  and  _193
REMARK   79  A    between atoms: _193  and  _194
REMARK   80  A    between atoms: _197  and  _199
REMARK   81  A    between atoms: _199  and  _200
REMARK   82  A    between atoms: _202  and  _204
REMARK   83  A    between atoms: _204  and  _205
REMARK   84  A    between atoms: _204  and  _207
REMARK   85  A    between atoms: _207  and  _208
REMARK   86  A    between atoms: _208  and  _209
REMARK   87  A    between atoms: _209  and  MG_664
REMARK   88  A    between atoms: _211  and  _213
REMARK   89  A    between atoms: _213  and  _214
REMARK   90  A    between atoms: _216  and  _218
REMARK   91  A    between atoms: _218  and  _219
REMARK   92  A    between atoms: _218  and  _221
REMARK   93  A    between atoms: _221  and  _222
REMARK   94  A    between atoms: _224  and  _226
REMARK   95  A    between atoms: _226  and  _227
REMARK   96  A    between atoms: _230  and  _232
REMARK   97  A    between atoms: _232  and  _233
REMARK   98  A    between atoms: _232  and  _235
REMARK   99  A    between atoms: _235  and  _236
REMARK  100  A    between atoms: _241  and  _243
REMARK  101  A    between atoms: _243  and  _244
REMARK  102  A    between atoms: _243  and  _246
REMARK  103  A    between atoms: _246  and  _247
REMARK  104  A    between atoms: _252  and  _253
REMARK  105  A    between atoms: _255  and  _257
REMARK  106  A    between atoms: _257  and  _258
REMARK  107  A    between atoms: _257  and  _260
REMARK  108  A    between atoms: _260  and  _261
REMARK  109  A    between atoms: _264  and  _266
REMARK  110  A    between atoms: _266  and  _267
REMARK  111  A    between atoms: _266  and  _269
REMARK  112  A    between atoms: _269  and  _270
REMARK  113  A    between atoms: _270  and  _271
REMARK  114  A    between atoms: _273  and  _275
REMARK  115  A    between atoms: _275  and  _276
REMARK  116  A    between atoms: _275  and  _278
REMARK  117  A    between atoms: _278  and  _279
REMARK  118  A    between atoms: _284  and  _286
REMARK  119  A    between atoms: _286  and  _287
REMARK  120  A    between atoms: _286  and  _289
REMARK  121  A    between atoms: _289  and  _290
REMARK  122  A    between atoms: _290  and  _291
REMARK  123  A    between atoms: _290  and  _292
REMARK  124  A    between atoms: _291  and  MG_664
REMARK  125  A    between atoms: _295  and  _297
REMARK  126  A    between atoms: _297  and  _298
REMARK  127  A    between atoms: _300  and  _302
REMARK  128  A    between atoms: _302  and  _303
REMARK  129  A    between atoms: _302  and  _305
REMARK  130  A    between atoms: _305  and  _306
REMARK  131  A    between atoms: _309  and  _311
REMARK  132  A    between atoms: _311  and  _312
REMARK  133  A    between atoms: _311  and  _314
REMARK  134  A    between atoms: _314  and  _315
REMARK  135  A    between atoms: _320  and  _321
REMARK  136  A    between atoms: _323  and  _325
REMARK  137  A    between atoms: _325  and  _326
REMARK  138  A    between atoms: _328  and  _330
REMARK  139  A    between atoms: _330  and  _331
REMARK  140  A    between atoms: _334  and  _336
REMARK  141  A    between atoms: _336  and  _337
REMARK  142  A    between atoms: _336  and  _339
REMARK  143  A    between atoms: _339  and  _340
REMARK  144  A    between atoms: _343  and  _345
REMARK  145  A    between atoms: _345  and  _346
REMARK  146  A    between atoms: _345  and  _348
REMARK  147  A    between atoms: _348  and  _349
REMARK  148  A    between atoms: _349  and  _350
REMARK  149  A    between atoms: _350  and  _351
REMARK  150  A    between atoms: _360  and  _362
REMARK  151  A    between atoms: _362  and  _363
REMARK  152  A    between atoms: _362  and  _365
REMARK  153  A    between atoms: _365  and  _366
REMARK  154  A    between atoms: _376  and  _378
REMARK  155  A    between atoms: _378  and  _379
REMARK  156  A    between atoms: _378  and  _381
REMARK  157  A    between atoms: _381  and  _382
REMARK  158  A    between atoms: _388  and  _390
REMARK  159  A    between atoms: _390  and  _391
REMARK  160  A    between atoms: _394  and  _396
REMARK  161  A    between atoms: _396  and  _397
REMARK  162  A    between atoms: _399  and  _401
REMARK  163  A    between atoms: _401  and  _402
REMARK  164  A    between atoms: _401  and  _404
REMARK  165  A    between atoms: _404  and  _405
REMARK  166  A    between atoms: _408  and  _410
REMARK  167  A    between atoms: _410  and  _411
REMARK  168  A    between atoms: _410  and  _413
REMARK  169  A    between atoms: _416  and  _418
REMARK  170  A    between atoms: _418  and  _419
REMARK  171  A    between atoms: _418  and  _421
REMARK  172  A    between atoms: _421  and  _422
REMARK  173  A    between atoms: _428  and  _430
REMARK  174  A    between atoms: _430  and  _431
REMARK  175  A    between atoms: _430  and  _433
REMARK  176  A    between atoms: _433  and  _434
REMARK  177  A    between atoms: _437  and  _439
REMARK  178  A    between atoms: _439  and  _440
REMARK  179  A    between atoms: _439  and  _442
REMARK  180  A    between atoms: _445  and  _447
REMARK  181  A    between atoms: _447  and  _448
REMARK  182  A    between atoms: _447  and  _450
REMARK  183  A    between atoms: _450  and  _451
REMARK  184  A    between atoms: _457  and  _458
REMARK  185  A    between atoms: _463  and  _465
REMARK  186  A    between atoms: _465  and  _466
REMARK  187  A    between atoms: _468  and  _470
REMARK  188  A    between atoms: _470  and  _471
REMARK  189  A    between atoms: _470  and  _473
REMARK  190  A    between atoms: _473  and  _474
REMARK  191  A    between atoms: _476  and  _478
REMARK  192  A    between atoms: _478  and  _479
REMARK  193  A    between atoms: _478  and  _481
REMARK  194  A    between atoms: _481  and  _482
REMARK  195  A    between atoms: _487  and  _489
REMARK  196  A    between atoms: _489  and  _490
REMARK  197  A    between atoms: _489  and  _492
REMARK  198  A    between atoms: _492  and  _493
REMARK  199  A    between atoms: _493  and  _494
REMARK  200  A    between atoms: _497  and  _499
REMARK  201  A    between atoms: _499  and  _500
REMARK  202  A    between atoms: _499  and  _502
REMARK  203  A    between atoms: _502  and  _503
REMARK  204  A    between atoms: _506  and  _508
REMARK  205  A    between atoms: _508  and  _509
REMARK  206  A    between atoms: _508  and  _511
REMARK  207  A    between atoms: _511  and  _512
REMARK  208  A    between atoms: _515  and  _517
REMARK  209  A    between atoms: _517  and  _518
REMARK  210  A    between atoms: _521  and  _523
REMARK  211  A    between atoms: _523  and  _524
REMARK  212  A    between atoms: _523  and  _526
REMARK  213  A    between atoms: _526  and  _527
REMARK  214  A    between atoms: _530  and  _532
REMARK  215  A    between atoms: _532  and  _533
REMARK  216  A    between atoms: _532  and  _535
REMARK  217  A    between atoms: _535  and  _536
REMARK  218  A    between atoms: _536  and  _537
REMARK  219  A    between atoms: _542  and  _544
REMARK  220  A    between atoms: _544  and  _545
REMARK  221  A    between atoms: _544  and  _547
REMARK  222  A    between atoms: _547  and  _548
REMARK  223  A    between atoms: _548  and  _549
REMARK  224  A    between atoms: _552  and  _554
REMARK  225  A    between atoms: _554  and  _555
REMARK  226  A    between atoms: _558  and  _560
REMARK  227  A    between atoms: _560  and  _561
REMARK  228  A    between atoms: _560  and  _563
REMARK  229  A    between atoms: _563  and  _564
REMARK  230  A    between atoms: _567  and  _569
REMARK  231  A    between atoms: _569  and  _570
REMARK  232  A    between atoms: _569  and  _572
REMARK  233  A    between atoms: _572  and  _573
REMARK  234  A    between atoms: _578  and  _580
REMARK  235  A    between atoms: _580  and  _581
REMARK  236  A    between atoms: _580  and  _583
REMARK  237  A    between atoms: _583  and  _584
REMARK  238  A    between atoms: _586  and  _588
REMARK  239  A    between atoms: _588  and  _589
REMARK  240  A    between atoms: _592  and  _594
REMARK  241  A    between atoms: _594  and  _595
REMARK  242  A    between atoms: _598  and  _600
REMARK  243  A    between atoms: _600  and  _601
REMARK  244  A    between atoms: _603  and  _605
REMARK  245  A    between atoms: _605  and  _606
REMARK  246  A    between atoms: _605  and  _608
REMARK  247  A    between atoms: _608  and  _609
REMARK  248  A    between atoms: _612  and  _614
REMARK  249  A    between atoms: _614  and  _615
REMARK  250  A    between atoms: _617  and  _619
REMARK  251  A    between atoms: _619  and  _620
REMARK  252  A    between atoms: _619  and  _622
REMARK  253  A    between atoms: _622  and  _623
REMARK  254  A    between atoms: _628  and  _630
REMARK  255  A    between atoms: _630  and  _631
REMARK  256  A    between atoms: _634  and  _636
REMARK  257  A    between atoms: _636  and  _637
REMARK  258  A    between atoms: _636  and  _639
REMARK  259  A    between atoms: _639  and  _640
REMARK  260  A    between atoms: _640  and  _641
REMARK  261  A    between atoms: _646  and  _648
REMARK  262  A    between atoms: _648  and  _649
REMARK  263  A    between atoms: _648  and  _651
REMARK  264  A    between atoms: _651  and  _652
REMARK  265  A    between atoms: _655  and  _657
REMARK  266  A    between atoms: _657  and  _658
REMARK  267  A    between atoms: _657  and  _660
REMARK  268  A    between atoms: _660  and  _661
REMARK                            x       y       z     vdW  Elec       q    Type
REMARK                         _______ _______ _______ _____ _____    ______ ____
ROOT
ATOM      1  CA  SER A   1     111.378  39.757  83.505  0.00  0.00    +0.163 C 
ENDROOT
BRANCH   1   2
ATOM      2  N   SER A   1     112.650  39.360  82.880  0.00  0.00    -0.237 NA
ATOM      3  H   SER A   1     113.471  39.179  83.492  0.00  0.00    +0.142 HD
ENDBRANCH   1   2
BRANCH   1   4
ATOM      4  C   SER A   1     110.265  38.759  83.152  0.00  0.00    +0.227 C 
ATOM      5  O   SER A   1     109.090  39.138  82.970  0.00  0.00    -0.287 OA
ENDBRANCH   1   4
BRANCH   1   6
ATOM      6  CB  SER A   1     111.009  41.201  83.118  0.00  0.00    +0.162 C 
BRANCH   6   7
ATOM      7  OG  SER A   1     112.033  42.124  83.484  0.00  0.00    -0.380 OA
ATOM      8  H   SER A   1     112.172  42.089  84.464  0.00  0.00    +0.211 HD
ENDBRANCH   6   7
ENDBRANCH   1   6
TORSDOF 4
REMARK  Name = ../refined-set-2016/3fzn/3fzn_pocket.pdb
REMARK  268 active torsions:
REMARK  status: ('A' for Active; 'I' for Inactive)
REMARK    1  A    between atoms: _1  and  _3
REMARK    2  A    between atoms: _3  and  _4
REMARK    3  A    between atoms: _6  and  _8
REMARK    4  A    between atoms: _8  and  _9
REMARK    5  A    between atoms: _8  and  _11
REMARK    6  A    between atoms: _11  and  _12
REMARK    7  A    between atoms: _17  and  _19
REMARK    8  A    between atoms: _19  and  _20
REMARK    9  A    between atoms: _19  and  _22
REMARK   10  A    between atoms: _22  and  _23
REMARK   11  A    between atoms: _25  and  _27
REMARK   12  A    between atoms: _27  and  _28
REMARK   13  A    between atoms: _27  and  _30
REMARK   14  A    between atoms: _30  and  _31
REMARK   15  A    between atoms: _36  and  _38
REMARK   16  A    between atoms: _38  and  _39
REMARK   17  A    between atoms: _38  and  _41
REMARK   18  A    between atoms: _41  and  _42
REMARK   19  A    between atoms: _42  and  _43
REMARK   20  A    between atoms: _49  and  _50
REMARK   21  A    between atoms: _55  and  _57
REMARK   22  A    between atoms: _57  and  _58
REMARK   23  A    between atoms: _57  and  _60
REMARK   24  A    between atoms: _60  and  _61
REMARK   25  A    between atoms: _66  and  _68
REMARK   26  A    between atoms: _68  and  _69
REMARK   27  A    between atoms: _68  and  _71
REMARK   28  A    between atoms: _71  and  _72
REMARK   29  A    between atoms: _72  and  _73
REMARK   30  A    between atoms: _76  and  _78
REMARK   31  A    between atoms: _78  and  _79
REMARK   32  A    between atoms: _78  and  _81
REMARK   33  A    between atoms: _81  and  _82
REMARK   34  A    between atoms: _84  and  _86
REMARK   35  A    between atoms: _86  and  _87
REMARK   36  A    between atoms: _86  and  _89
REMARK   37  A    between atoms: _89  and  _90
REMARK   38  A    between atoms: _93  and  _95
REMARK   39  A    between atoms: _95  and  _96
REMARK   40  A    between atoms: _95  and  _98
REMARK   41  A    between atoms: _98  and  _99
REMARK   42  A    between atoms: _101  and  _103
REMARK   43  A    between atoms: _103  and  _104
REMARK   44  A    between atoms: _103  and  _106
REMARK   45  A    between atoms: _106  and  _107
REMARK   46  A    between atoms: _110  and  _112
REMARK   47  A    between atoms: _112  and  _113
REMARK   48  A    between atoms: _112  and  _115
REMARK   49  A    between atoms: _115  and  _116
REMARK   50  A    between atoms: _119  and  _121
REMARK   51  A    between atoms: _121  and  _122
REMARK   52  A    between atoms: _121  and  _124
REMARK   53  A    between atoms: _124  and  _125
REMARK   54  A    between atoms: _131  and  _133
REMARK   55  A    between atoms: _133  and  _134
REMARK   56  A    between atoms: _133  and  _136
REMARK   57  A    between atoms: _138  and  _140
REMARK   58  A    between atoms: _140  and  _141
REMARK   59  A    between atoms: _144  and  _146
REMARK   60  A    between atoms: _146  and  _147
REMARK   61  A    between atoms: _149  and  _151
REMARK   62  A    between atoms: _151  and  _152
REMARK   63  A    between atoms: _154  and  _156
REMARK   64  A    between atoms: _156  and  _157
REMARK   65  A    between atoms: _156  and  _159
REMARK   66  A    between atoms: _159  and  _160
REMARK   67  A    between atoms: _163  and  _165
REMARK   68  A    between atoms: _165  and  _166
REMARK   69  A    between atoms: _168  and  _170
REMARK   70  A    between atoms: _170  and  _171
REMARK   71  A    between atoms: _170  and  _173
REMARK   72  A    between atoms: _173  and  _174
REMARK   73  A    between atoms: _180  and  _182
REMARK   74  A    between atoms: _182  and  _183
REMARK   75  A    between atoms: _182  and  _185
REMARK   76  A    between atoms: _188  and  _190
REMARK   77  A    between atoms: _190  and  _191
REMARK   78  A    between atoms: _190  and  _193
REMARK   79  A    between atoms: _193  and  _194
REMARK   80  A    between atoms: _197  and  _199
REMARK   81  A    between atoms: _199  and  _200
REMARK   82  A    between atoms: _202  and  _204
REMARK   83  A    between atoms: _204  and  _205
REMARK   84  A    between atoms: _204  and  _207
REMARK   85  A    between atoms: _207  and  _208
REMARK   86  A    between atoms: _208  and  _209
REMARK   87  A    between atoms: _209  and  MG_664
REMARK   88  A    between atoms: _211  and  _213
REMARK   89  A    between atoms: _213  and  _214
REMARK   90  A    between atoms: _216  and  _218
REMARK   91  A    between atoms: _218  and  _219
REMARK   92  A    between atoms: _218  and  _221
REMARK   93  A    between atoms: _221  and  _222
REMARK   94  A    between atoms: _224  and  _226
REMARK   95  A    between atoms: _226  and  _227
REMARK   96  A    between atoms: _230  and  _232
REMARK   97  A    between atoms: _232  and  _233
REMARK   98  A    between atoms: _232  and  _235
REMARK   99  A    between atoms: _235  and  _236
REMARK  100  A    between atoms: _241  and  _243
REMARK  101  A    between atoms: _243  and  _244
REMARK  102  A    between atoms: _243  and  _246
REMARK  103  A    between atoms: _246  and  _247
REMARK  104  A    between atoms: _252  and  _253
REMARK  105  A    between atoms: _255  and  _257
REMARK  106  A    between atoms: _257  and  _258
REMARK  107  A    between atoms: _257  and  _260
REMARK  108  A    between atoms: _260  and  _261
REMARK  109  A    between atoms: _264  and  _266
REMARK  110  A    between atoms: _266  and  _267
REMARK  111  A    between atoms: _266  and  _269
REMARK  112  A    between atoms: _269  and  _270
REMARK  113  A    between atoms: _270  and  _271
REMARK  114  A    between atoms: _273  and  _275
REMARK  115  A    between atoms: _275  and  _276
REMARK  116  A    between atoms: _275  and  _278
REMARK  117  A    between atoms: _278  and  _279
REMARK  118  A    between atoms: _284  and  _286
REMARK  119  A    between atoms: _286  and  _287
REMARK  120  A    between atoms: _286  and  _289
REMARK  121  A    between atoms: _289  and  _290
REMARK  122  A    between atoms: _290  and  _291
REMARK  123  A    between atoms: _290  and  _292
REMARK  124  A    between atoms: _291  and  MG_664
REMARK  125  A    between atoms: _295  and  _297
REMARK  126  A    between atoms: _297  and  _298
REMARK  127  A    between atoms: _300  and  _302
REMARK  128  A    between atoms: _302  and  _303
REMARK  129  A    between atoms: _302  and  _305
REMARK  130  A    between atoms: _305  and  _306
REMARK  131  A    between atoms: _309  and  _311
REMARK  132  A    between atoms: _311  and  _312
REMARK  133  A    between atoms: _311  and  _314
REMARK  134  A    between atoms: _314  and  _315
REMARK  135  A    between atoms: _320  and  _321
REMARK  136  A    between atoms: _323  and  _325
REMARK  137  A    between atoms: _325  and  _326
REMARK  138  A    between atoms: _328  and  _330
REMARK  139  A    between atoms: _330  and  _331
REMARK  140  A    between atoms: _334  and  _336
REMARK  141  A    between atoms: _336  and  _337
REMARK  142  A    between atoms: _336  and  _339
REMARK  143  A    between atoms: _339  and  _340
REMARK  144  A    between atoms: _343  and  _345
REMARK  145  A    between atoms: _345  and  _346
REMARK  146  A    between atoms: _345  and  _348
REMARK  147  A    between atoms: _348  and  _349
REMARK  148  A    between atoms: _349  and  _350
REMARK  149  A    between atoms: _350  and  _351
REMARK  150  A    between atoms: _360  and  _362
REMARK  151  A    between atoms: _362  and  _363
REMARK  152  A    between atoms: _362  and  _365
REMARK  153  A    between atoms: _365  and  _366
REMARK  154  A    between atoms: _376  and  _378
REMARK  155  A    between atoms: _378  and  _379
REMARK  156  A    between atoms: _378  and  _381
REMARK  157  A    between atoms: _381  and  _382
REMARK  158  A    between atoms: _388  and  _390
REMARK  159  A    between atoms: _390  and  _391
REMARK  160  A    between atoms: _394  and  _396
REMARK  161  A    between atoms: _396  and  _397
REMARK  162  A    between atoms: _399  and  _401
REMARK  163  A    between atoms: _401  and  _402
REMARK  164  A    between atoms: _401  and  _404
REMARK  165  A    between atoms: _404  and  _405
REMARK  166  A    between atoms: _408  and  _410
REMARK  167  A    between atoms: _410  and  _411
REMARK  168  A    between atoms: _410  and  _413
REMARK  169  A    between atoms: _416  and  _418
REMARK  170  A    between atoms: _418  and  _419
REMARK  171  A    between atoms: _418  and  _421
REMARK  172  A    between atoms: _421  and  _422
REMARK  173  A    between atoms: _428  and  _430
REMARK  174  A    between atoms: _430  and  _431
REMARK  175  A    between atoms: _430  and  _433
REMARK  176  A    between atoms: _433  and  _434
REMARK  177  A    between atoms: _437  and  _439
REMARK  178  A    between atoms: _439  and  _440
REMARK  179  A    between atoms: _439  and  _442
REMARK  180  A    between atoms: _445  and  _447
REMARK  181  A    between atoms: _447  and  _448
REMARK  182  A    between atoms: _447  and  _450
REMARK  183  A    between atoms: _450  and  _451
REMARK  184  A    between atoms: _457  and  _458
REMARK  185  A    between atoms: _463  and  _465
REMARK  186  A    between atoms: _465  and  _466
REMARK  187  A    between atoms: _468  and  _470
REMARK  188  A    between atoms: _470  and  _471
REMARK  189  A    between atoms: _470  and  _473
REMARK  190  A    between atoms: _473  and  _474
REMARK  191  A    between atoms: _476  and  _478
REMARK  192  A    between atoms: _478  and  _479
REMARK  193  A    between atoms: _478  and  _481
REMARK  194  A    between atoms: _481  and  _482
REMARK  195  A    between atoms: _487  and  _489
REMARK  196  A    between atoms: _489  and  _490
REMARK  197  A    between atoms: _489  and  _492
REMARK  198  A    between atoms: _492  and  _493
REMARK  199  A    between atoms: _493  and  _494
REMARK  200  A    between atoms: _497  and  _499
REMARK  201  A    between atoms: _499  and  _500
REMARK  202  A    between atoms: _499  and  _502
REMARK  203  A    between atoms: _502  and  _503
REMARK  204  A    between atoms: _506  and  _508
REMARK  205  A    between atoms: _508  and  _509
REMARK  206  A    between atoms: _508  and  _511
REMARK  207  A    between atoms: _511  and  _512
REMARK  208  A    between atoms: _515  and  _517
REMARK  209  A    between atoms: _517  and  _518
REMARK  210  A    between atoms: _521  and  _523
REMARK  211  A    between atoms: _523  and  _524
REMARK  212  A    between atoms: _523  and  _526
REMARK  213  A    between atoms: _526  and  _527
REMARK  214  A    between atoms: _530  and  _532
REMARK  215  A    between atoms: _532  and  _533
REMARK  216  A    between atoms: _532  and  _535
REMARK  217  A    between atoms: _535  and  _536
REMARK  218  A    between atoms: _536  and  _537
REMARK  219  A    between atoms: _542  and  _544
REMARK  220  A    between atoms: _544  and  _545
REMARK  221  A    between atoms: _544  and  _547
REMARK  222  A    between atoms: _547  and  _548
REMARK  223  A    between atoms: _548  and  _549
REMARK  224  A    between atoms: _552  and  _554
REMARK  225  A    between atoms: _554  and  _555
REMARK  226  A    between atoms: _558  and  _560
REMARK  227  A    between atoms: _560  and  _561
REMARK  228  A    between atoms: _560  and  _563
REMARK  229  A    between atoms: _563  and  _564
REMARK  230  A    between atoms: _567  and  _569
REMARK  231  A    between atoms: _569  and  _570
REMARK  232  A    between atoms: _569  and  _572
REMARK  233  A    between atoms: _572  and  _573
REMARK  234  A    between atoms: _578  and  _580
REMARK  235  A    between atoms: _580  and  _581
REMARK  236  A    between atoms: _580  and  _583
REMARK  237  A    between atoms: _583  and  _584
REMARK  238  A    between atoms: _586  and  _588
REMARK  239  A    between atoms: _588  and  _589
REMARK  240  A    between atoms: _592  and  _594
REMARK  241  A    between atoms: _594  and  _595
REMARK  242  A    between atoms: _598  and  _600
REMARK  243  A    between atoms: _600  and  _601
REMARK  244  A    between atoms: _603  and  _605
REMARK  245  A    between atoms: _605  and  _606
REMARK  246  A    between atoms: _605  and  _608
REMARK  247  A    between atoms: _608  and  _609
REMARK  248  A    between atoms: _612  and  _614
REMARK  249  A    between atoms: _614  and  _615
REMARK  250  A    between atoms: _617  and  _619
REMARK  251  A    between atoms: _619  and  _620
REMARK  252  A    between atoms: _619  and  _622
REMARK  253  A    between atoms: _622  and  _623
REMARK  254  A    between atoms: _628  and  _630
REMARK  255  A    between atoms: _630  and  _631
REMARK  256  A    between atoms: _634  and  _636
REMARK  257  A    between atoms: _636  and  _637
REMARK  258  A    between atoms: _636  and  _639
REMARK  259  A    between atoms: _639  and  _640
REMARK  260  A    between atoms: _640  and  _641
REMARK  261  A    between atoms: _646  and  _648
REMARK  262  A    between atoms: _648  and  _649
REMARK  263  A    between atoms: _648  and  _651
REMARK  264  A    between atoms: _651  and  _652
REMARK  265  A    between atoms: _655  and  _657
REMARK  266  A    between atoms: _657  and  _658
REMARK  267  A    between atoms: _657  and  _660
REMARK  268  A    between atoms: _660  and  _661
REMARK                            x       y       z     vdW  Elec       q    Type
REMARK                         _______ _______ _______ _____ _____    ______ ____
ROOT
ATOM      1  C   HIS A   1     115.378  47.511  85.045  0.00  0.00    +0.239 C 
ATOM      2  N   GLN A   2     116.421  46.973  85.690  0.00  0.00    -0.298 N 
ATOM      3  H   GLN A   2     116.447  45.947  85.860  0.00  0.00    +0.150 HD
ATOM      4  O   HIS A   1     115.215  48.756  84.934  0.00  0.00    -0.274 OA
ENDROOT
BRANCH   1   5
ATOM      5  CA  HIS A   1     114.379  46.528  84.419  0.00  0.00    +0.151 C 
BRANCH   5   6
ATOM      6  N   HIS A   1     114.973  46.009  83.170  0.00  0.00    -0.238 NA
ATOM      7  H   HIS A   1     115.974  45.727  83.166  0.00  0.00    +0.142 HD
ENDBRANCH   5   6
BRANCH   5   8
ATOM      8  CB  HIS A   1     114.028  45.334  85.338  0.00  0.00    +0.074 C 
BRANCH   8   9
ATOM      9  CG  HIS A   1     113.384  45.678  86.648  0.00  0.00    +0.082 A 
ATOM     10  ND1 HIS A   1     112.906  44.690  87.490  0.00  0.00    -0.227 NA
ATOM     11  CE1 HIS A   1     112.390  45.246  88.574  0.00  0.00    +0.199 A 
ATOM     12  NE2 HIS A   1     112.494  46.557  88.459  0.00  0.00    -0.221 NA
ATOM     13  CD2 HIS A   1     113.105  46.856  87.260  0.00  0.00    +0.115 A 
ENDBRANCH   8   9
ENDBRANCH   5   8
ENDBRANCH   1   5
BRANCH   2  14
ATOM     14  CA  GLN A   2     117.527  47.815  86.159  0.00  0.00    +0.137 C 
BRANCH  14  15
ATOM     15  C   GLN A   2     118.185  48.531  84.976  0.00  0.00    +0.227 C 
ATOM     16  O   GLN A   2     118.205  47.993  83.872  0.00  0.00    -0.286 OA
ENDBRANCH  14  15
BRANCH  14  17
ATOM     17  CB  GLN A   2     118.568  46.988  86.913  0.00  0.00    +0.037 C 
BRANCH  17  18
ATOM     18  CG  GLN A   2     119.173  45.836  86.092  0.00  0.00    +0.087 C 
BRANCH  18  19
ATOM     19  CD  GLN A   2     118.526  44.496  86.329  0.00  0.00    +0.219 C 
ATOM     20  OE1 GLN A   2     117.338  44.404  86.683  0.00  0.00    -0.275 OA
ATOM     21  NE2 GLN A   2     119.314  43.419  86.122  0.00  0.00    -0.329 N 
ATOM     22 HE21 GLN A   2     118.932  42.461  86.258  0.00  0.00    +0.145 HD
ATOM     23 HE22 GLN A   2     120.303  43.547  85.826  0.00  0.00    +0.145 HD
ENDBRANCH  18  19
ENDBRANCH  17  18
ENDBRANCH  14  17
ENDBRANCH   2  14
TORSDOF 9
REMARK  Name = ../refined-set-2016/3fzn/3fzn_pocket.pdb
REMARK  268 active torsions:
REMARK  status: ('A' for Active; 'I' for Inactive)
REMARK    1  A    between atoms: _1  and  _3
REMARK    2  A    between atoms: _3  and  _4
REMARK    3  A    between atoms: _6  and  _8
REMARK    4  A    between atoms: _8  and  _9
REMARK    5  A    between atoms: _8  and  _11
REMARK    6  A    between atoms: _11  and  _12
REMARK    7  A    between atoms: _17  and  _19
REMARK    8  A    between atoms: _19  and  _20
REMARK    9  A    between atoms: _19  and  _22
REMARK   10  A    between atoms: _22  and  _23
REMARK   11  A    between atoms: _25  and  _27
REMARK   12  A    between atoms: _27  and  _28
REMARK   13  A    between atoms: _27  and  _30
REMARK   14  A    between atoms: _30  and  _31
REMARK   15  A    between atoms: _36  and  _38
REMARK   16  A    between atoms: _38  and  _39
REMARK   17  A    between atoms: _38  and  _41
REMARK   18  A    between atoms: _41  and  _42
REMARK   19  A    between atoms: _42  and  _43
REMARK   20  A    between atoms: _49  and  _50
REMARK   21  A    between atoms: _55  and  _57
REMARK   22  A    between atoms: _57  and  _58
REMARK   23  A    between atoms: _57  and  _60
REMARK   24  A    between atoms: _60  and  _61
REMARK   25  A    between atoms: _66  and  _68
REMARK   26  A    between atoms: _68  and  _69
REMARK   27  A    between atoms: _68  and  _71
REMARK   28  A    between atoms: _71  and  _72
REMARK   29  A    between atoms: _72  and  _73
REMARK   30  A    between atoms: _76  and  _78
REMARK   31  A    between atoms: _78  and  _79
REMARK   32  A    between atoms: _78  and  _81
REMARK   33  A    between atoms: _81  and  _82
REMARK   34  A    between atoms: _84  and  _86
REMARK   35  A    between atoms: _86  and  _87
REMARK   36  A    between atoms: _86  and  _89
REMARK   37  A    between atoms: _89  and  _90
REMARK   38  A    between atoms: _93  and  _95
REMARK   39  A    between atoms: _95  and  _96
REMARK   40  A    between atoms: _95  and  _98
REMARK   41  A    between atoms: _98  and  _99
REMARK   42  A    between atoms: _101  and  _103
REMARK   43  A    between atoms: _103  and  _104
REMARK   44  A    between atoms: _103  and  _106
REMARK   45  A    between atoms: _106  and  _107
REMARK   46  A    between atoms: _110  and  _112
REMARK   47  A    between atoms: _112  and  _113
REMARK   48  A    between atoms: _112  and  _115
REMARK   49  A    between atoms: _115  and  _116
REMARK   50  A    between atoms: _119  and  _121
REMARK   51  A    between atoms: _121  and  _122
REMARK   52  A    between atoms: _121  and  _124
REMARK   53  A    between atoms: _124  and  _125
REMARK   54  A    between atoms: _131  and  _133
REMARK   55  A    between atoms: _133  and  _134
REMARK   56  A    between atoms: _133  and  _136
REMARK   57  A    between atoms: _138  and  _140
REMARK   58  A    between atoms: _140  and  _141
REMARK   59  A    between atoms: _144  and  _146
REMARK   60  A    between atoms: _146  and  _147
REMARK   61  A    between atoms: _149  and  _151
REMARK   62  A    between atoms: _151  and  _152
REMARK   63  A    between atoms: _154  and  _156
REMARK   64  A    between atoms: _156  and  _157
REMARK   65  A    between atoms: _156  and  _159
REMARK   66  A    between atoms: _159  and  _160
REMARK   67  A    between atoms: _163  and  _165
REMARK   68  A    between atoms: _165  and  _166
REMARK   69  A    between atoms: _168  and  _170
REMARK   70  A    between atoms: _170  and  _171
REMARK   71  A    between atoms: _170  and  _173
REMARK   72  A    between atoms: _173  and  _174
REMARK   73  A    between atoms: _180  and  _182
REMARK   74  A    between atoms: _182  and  _183
REMARK   75  A    between atoms: _182  and  _185
REMARK   76  A    between atoms: _188  and  _190
REMARK   77  A    between atoms: _190  and  _191
REMARK   78  A    between atoms: _190  and  _193
REMARK   79  A    between atoms: _193  and  _194
REMARK   80  A    between atoms: _197  and  _199
REMARK   81  A    between atoms: _199  and  _200
REMARK   82  A    between atoms: _202  and  _204
REMARK   83  A    between atoms: _204  and  _205
REMARK   84  A    between atoms: _204  and  _207
REMARK   85  A    between atoms: _207  and  _208
REMARK   86  A    between atoms: _208  and  _209
REMARK   87  A    between atoms: _209  and  MG_664
REMARK   88  A    between atoms: _211  and  _213
REMARK   89  A    between atoms: _213  and  _214
REMARK   90  A    between atoms: _216  and  _218
REMARK   91  A    between atoms: _218  and  _219
REMARK   92  A    between atoms: _218  and  _221
REMARK   93  A    between atoms: _221  and  _222
REMARK   94  A    between atoms: _224  and  _226
REMARK   95  A    between atoms: _226  and  _227
REMARK   96  A    between atoms: _230  and  _232
REMARK   97  A    between atoms: _232  and  _233
REMARK   98  A    between atoms: _232  and  _235
REMARK   99  A    between atoms: _235  and  _236
REMARK  100  A    between atoms: _241  and  _243
REMARK  101  A    between atoms: _243  and  _244
REMARK  102  A    between atoms: _243  and  _246
REMARK  103  A    between atoms: _246  and  _247
REMARK  104  A    between atoms: _252  and  _253
REMARK  105  A    between atoms: _255  and  _257
REMARK  106  A    between atoms: _257  and  _258
REMARK  107  A    between atoms: _257  and  _260
REMARK  108  A    between atoms: _260  and  _261
REMARK  109  A    between atoms: _264  and  _266
REMARK  110  A    between atoms: _266  and  _267
REMARK  111  A    between atoms: _266  and  _269
REMARK  112  A    between atoms: _269  and  _270
REMARK  113  A    between atoms: _270  and  _271
REMARK  114  A    between atoms: _273  and  _275
REMARK  115  A    between atoms: _275  and  _276
REMARK  116  A    between atoms: _275  and  _278
REMARK  117  A    between atoms: _278  and  _279
REMARK  118  A    between atoms: _284  and  _286
REMARK  119  A    between atoms: _286  and  _287
REMARK  120  A    between atoms: _286  and  _289
REMARK  121  A    between atoms: _289  and  _290
REMARK  122  A    between atoms: _290  and  _291
REMARK  123  A    between atoms: _290  and  _292
REMARK  124  A    between atoms: _291  and  MG_664
REMARK  125  A    between atoms: _295  and  _297
REMARK  126  A    between atoms: _297  and  _298
REMARK  127  A    between atoms: _300  and  _302
REMARK  128  A    between atoms: _302  and  _303
REMARK  129  A    between atoms: _302  and  _305
REMARK  130  A    between atoms: _305  and  _306
REMARK  131  A    between atoms: _309  and  _311
REMARK  132  A    between atoms: _311  and  _312
REMARK  133  A    between atoms: _311  and  _314
REMARK  134  A    between atoms: _314  and  _315
REMARK  135  A    between atoms: _320  and  _321
REMARK  136  A    between atoms: _323  and  _325
REMARK  137  A    between atoms: _325  and  _326
REMARK  138  A    between atoms: _328  and  _330
REMARK  139  A    between atoms: _330  and  _331
REMARK  140  A    between atoms: _334  and  _336
REMARK  141  A    between atoms: _336  and  _337
REMARK  142  A    between atoms: _336  and  _339
REMARK  143  A    between atoms: _339  and  _340
REMARK  144  A    between atoms: _343  and  _345
REMARK  145  A    between atoms: _345  and  _346
REMARK  146  A    between atoms: _345  and  _348
REMARK  147  A    between atoms: _348  and  _349
REMARK  148  A    between atoms: _349  and  _350
REMARK  149  A    between atoms: _350  and  _351
REMARK  150  A    between atoms: _360  and  _362
REMARK  151  A    between atoms: _362  and  _363
REMARK  152  A    between atoms: _362  and  _365
REMARK  153  A    between atoms: _365  and  _366
REMARK  154  A    between atoms: _376  and  _378
REMARK  155  A    between atoms: _378  and  _379
REMARK  156  A    between atoms: _378  and  _381
REMARK  157  A    between atoms: _381  and  _382
REMARK  158  A    between atoms: _388  and  _390
REMARK  159  A    between atoms: _390  and  _391
REMARK  160  A    between atoms: _394  and  _396
REMARK  161  A    between atoms: _396  and  _397
REMARK  162  A    between atoms: _399  and  _401
REMARK  163  A    between atoms: _401  and  _402
REMARK  164  A    between atoms: _401  and  _404
REMARK  165  A    between atoms: _404  and  _405
REMARK  166  A    between atoms: _408  and  _410
REMARK  167  A    between atoms: _410  and  _411
REMARK  168  A    between atoms: _410  and  _413
REMARK  169  A    between atoms: _416  and  _418
REMARK  170  A    between atoms: _418  and  _419
REMARK  171  A    between atoms: _418  and  _421
REMARK  172  A    between atoms: _421  and  _422
REMARK  173  A    between atoms: _428  and  _430
REMARK  174  A    between atoms: _430  and  _431
REMARK  175  A    between atoms: _430  and  _433
REMARK  176  A    between atoms: _433  and  _434
REMARK  177  A    between atoms: _437  and  _439
REMARK  178  A    between atoms: _439  and  _440
REMARK  179  A    between atoms: _439  and  _442
REMARK  180  A    between atoms: _445  and  _447
REMARK  181  A    between atoms: _447  and  _448
REMARK  182  A    between atoms: _447  and  _450
REMARK  183  A    between atoms: _450  and  _451
REMARK  184  A    between atoms: _457  and  _458
REMARK  185  A    between atoms: _463  and  _465
REMARK  186  A    between atoms: _465  and  _466
REMARK  187  A    between atoms: _468  and  _470
REMARK  188  A    between atoms: _470  and  _471
REMARK  189  A    between atoms: _470  and  _473
REMARK  190  A    between atoms: _473  and  _474
REMARK  191  A    between atoms: _476  and  _478
REMARK  192  A    between atoms: _478  and  _479
REMARK  193  A    between atoms: _478  and  _481
REMARK  194  A    between atoms: _481  and  _482
REMARK  195  A    between atoms: _487  and  _489
REMARK  196  A    between atoms: _489  and  _490
REMARK  197  A    between atoms: _489  and  _492
REMARK  198  A    between atoms: _492  and  _493
REMARK  199  A    between atoms: _493  and  _494
REMARK  200  A    between atoms: _497  and  _499
REMARK  201  A    between atoms: _499  and  _500
REMARK  202  A    between atoms: _499  and  _502
REMARK  203  A    between atoms: _502  and  _503
REMARK  204  A    between atoms: _506  and  _508
REMARK  205  A    between atoms: _508  and  _509
REMARK  206  A    between atoms: _508  and  _511
REMARK  207  A    between atoms: _511  and  _512
REMARK  208  A    between atoms: _515  and  _517
REMARK  209  A    between atoms: _517  and  _518
REMARK  210  A    between atoms: _521  and  _523
REMARK  211  A    between atoms: _523  and  _524
REMARK  212  A    between atoms: _523  and  _526
REMARK  213  A    between atoms: _526  and  _527
REMARK  214  A    between atoms: _530  and  _532
REMARK  215  A    between atoms: _532  and  _533
REMARK  216  A    between atoms: _532  and  _535
REMARK  217  A    between atoms: _535  and  _536
REMARK  218  A    between atoms: _536  and  _537
REMARK  219  A    between atoms: _542  and  _544
REMARK  220  A    between atoms: _544  and  _545
REMARK  221  A    between atoms: _544  and  _547
REMARK  222  A    between atoms: _547  and  _548
REMARK  223  A    between atoms: _548  and  _549
REMARK  224  A    between atoms: _552  and  _554
REMARK  225  A    between atoms: _554  and  _555
REMARK  226  A    between atoms: _558  and  _560
REMARK  227  A    between atoms: _560  and  _561
REMARK  228  A    between atoms: _560  and  _563
REMARK  229  A    between atoms: _563  and  _564
REMARK  230  A    between atoms: _567  and  _569
REMARK  231  A    between atoms: _569  and  _570
REMARK  232  A    between atoms: _569  and  _572
REMARK  233  A    between atoms: _572  and  _573
REMARK  234  A    between atoms: _578  and  _580
REMARK  235  A    between atoms: _580  and  _581
REMARK  236  A    between atoms: _580  and  _583
REMARK  237  A    between atoms: _583  and  _584
REMARK  238  A    between atoms: _586  and  _588
REMARK  239  A    between atoms: _588  and  _589
REMARK  240  A    between atoms: _592  and  _594
REMARK  241  A    between atoms: _594  and  _595
REMARK  242  A    between atoms: _598  and  _600
REMARK  243  A    between atoms: _600  and  _601
REMARK  244  A    between atoms: _603  and  _605
REMARK  245  A    between atoms: _605  and  _606
REMARK  246  A    between atoms: _605  and  _608
REMARK  247  A    between atoms: _608  and  _609
REMARK  248  A    between atoms: _612  and  _614
REMARK  249  A    between atoms: _614  and  _615
REMARK  250  A    between atoms: _617  and  _619
REMARK  251  A    between atoms: _619  and  _620
REMARK  252  A    between atoms: _619  and  _622
REMARK  253  A    between atoms: _622  and  _623
REMARK  254  A    between atoms: _628  and  _630
REMARK  255  A    between atoms: _630  and  _631
REMARK  256  A    between atoms: _634  and  _636
REMARK  257  A    between atoms: _636  and  _637
REMARK  258  A    between atoms: _636  and  _639
REMARK  259  A    between atoms: _639  and  _640
REMARK  260  A    between atoms: _640  and  _641
REMARK  261  A    between atoms: _646  and  _648
REMARK  262  A    between atoms: _648  and  _649
REMARK  263  A    between atoms: _648  and  _651
REMARK  264  A    between atoms: _651  and  _652
REMARK  265  A    between atoms: _655  and  _657
REMARK  266  A    between atoms: _657  and  _658
REMARK  267  A    between atoms: _657  and  _660
REMARK  268  A    between atoms: _660  and  _661
REMARK                            x       y       z     vdW  Elec       q    Type
REMARK                         _______ _______ _______ _____ _____    ______ ____
ROOT
ATOM      1  N   PRO A   1     115.765  31.362 101.556  0.00  0.00    -0.212 NA
ATOM      2  CD  PRO A   1     116.083  32.797 101.663  0.00  0.00    +0.089 C 
ATOM      3  CG  PRO A   1     115.206  33.418 100.572  0.00  0.00    +0.021 C 
ATOM      4  CB  PRO A   1     115.138  32.350  99.539  0.00  0.00    +0.027 C 
ATOM      5  CA  PRO A   1     114.980  31.071 100.366  0.00  0.00    +0.137 C 
ENDROOT
BRANCH   5   6
ATOM      6  C   PRO A   1     115.441  29.842  99.567  0.00  0.00    +0.224 C 
ATOM      7  O   PRO A   1     114.600  29.023  99.148  0.00  0.00    -0.287 OA
ENDBRANCH   5   6
TORSDOF 1
REMARK  Name = ../refined-set-2016/3fzn/3fzn_pocket.pdb
REMARK  268 active torsions:
REMARK  status: ('A' for Active; 'I' for Inactive)
REMARK    1  A    between atoms: _1  and  _3
REMARK    2  A    between atoms: _3  and  _4
REMARK    3  A    between atoms: _6  and  _8
REMARK    4  A    between atoms: _8  and  _9
REMARK    5  A    between atoms: _8  and  _11
REMARK    6  A    between atoms: _11  and  _12
REMARK    7  A    between atoms: _17  and  _19
REMARK    8  A    between atoms: _19  and  _20
REMARK    9  A    between atoms: _19  and  _22
REMARK   10  A    between atoms: _22  and  _23
REMARK   11  A    between atoms: _25  and  _27
REMARK   12  A    between atoms: _27  and  _28
REMARK   13  A    between atoms: _27  and  _30
REMARK   14  A    between atoms: _30  and  _31
REMARK   15  A    between atoms: _36  and  _38
REMARK   16  A    between atoms: _38  and  _39
REMARK   17  A    between atoms: _38  and  _41
REMARK   18  A    between atoms: _41  and  _42
REMARK   19  A    between atoms: _42  and  _43
REMARK   20  A    between atoms: _49  and  _50
REMARK   21  A    between atoms: _55  and  _57
REMARK   22  A    between atoms: _57  and  _58
REMARK   23  A    between atoms: _57  and  _60
REMARK   24  A    between atoms: _60  and  _61
REMARK   25  A    between atoms: _66  and  _68
REMARK   26  A    between atoms: _68  and  _69
REMARK   27  A    between atoms: _68  and  _71
REMARK   28  A    between atoms: _71  and  _72
REMARK   29  A    between atoms: _72  and  _73
REMARK   30  A    between atoms: _76  and  _78
REMARK   31  A    between atoms: _78  and  _79
REMARK   32  A    between atoms: _78  and  _81
REMARK   33  A    between atoms: _81  and  _82
REMARK   34  A    between atoms: _84  and  _86
REMARK   35  A    between atoms: _86  and  _87
REMARK   36  A    between atoms: _86  and  _89
REMARK   37  A    between atoms: _89  and  _90
REMARK   38  A    between atoms: _93  and  _95
REMARK   39  A    between atoms: _95  and  _96
REMARK   40  A    between atoms: _95  and  _98
REMARK   41  A    between atoms: _98  and  _99
REMARK   42  A    between atoms: _101  and  _103
REMARK   43  A    between atoms: _103  and  _104
REMARK   44  A    between atoms: _103  and  _106
REMARK   45  A    between atoms: _106  and  _107
REMARK   46  A    between atoms: _110  and  _112
REMARK   47  A    between atoms: _112  and  _113
REMARK   48  A    between atoms: _112  and  _115
REMARK   49  A    between atoms: _115  and  _116
REMARK   50  A    between atoms: _119  and  _121
REMARK   51  A    between atoms: _121  and  _122
REMARK   52  A    between atoms: _121  and  _124
REMARK   53  A    between atoms: _124  and  _125
REMARK   54  A    between atoms: _131  and  _133
REMARK   55  A    between atoms: _133  and  _134
REMARK   56  A    between atoms: _133  and  _136
REMARK   57  A    between atoms: _138  and  _140
REMARK   58  A    between atoms: _140  and  _141
REMARK   59  A    between atoms: _144  and  _146
REMARK   60  A    between atoms: _146  and  _147
REMARK   61  A    between atoms: _149  and  _151
REMARK   62  A    between atoms: _151  and  _152
REMARK   63  A    between atoms: _154  and  _156
REMARK   64  A    between atoms: _156  and  _157
REMARK   65  A    between atoms: _156  and  _159
REMARK   66  A    between atoms: _159  and  _160
REMARK   67  A    between atoms: _163  and  _165
REMARK   68  A    between atoms: _165  and  _166
REMARK   69  A    between atoms: _168  and  _170
REMARK   70  A    between atoms: _170  and  _171
REMARK   71  A    between atoms: _170  and  _173
REMARK   72  A    between atoms: _173  and  _174
REMARK   73  A    between atoms: _180  and  _182
REMARK   74  A    between atoms: _182  and  _183
REMARK   75  A    between atoms: _182  and  _185
REMARK   76  A    between atoms: _188  and  _190
REMARK   77  A    between atoms: _190  and  _191
REMARK   78  A    between atoms: _190  and  _193
REMARK   79  A    between atoms: _193  and  _194
REMARK   80  A    between atoms: _197  and  _199
REMARK   81  A    between atoms: _199  and  _200
REMARK   82  A    between atoms: _202  and  _204
REMARK   83  A    between atoms: _204  and  _205
REMARK   84  A    between atoms: _204  and  _207
REMARK   85  A    between atoms: _207  and  _208
REMARK   86  A    between atoms: _208  and  _209
REMARK   87  A    between atoms: _209  and  MG_664
REMARK   88  A    between atoms: _211  and  _213
REMARK   89  A    between atoms: _213  and  _214
REMARK   90  A    between atoms: _216  and  _218
REMARK   91  A    between atoms: _218  and  _219
REMARK   92  A    between atoms: _218  and  _221
REMARK   93  A    between atoms: _221  and  _222
REMARK   94  A    between atoms: _224  and  _226
REMARK   95  A    between atoms: _226  and  _227
REMARK   96  A    between atoms: _230  and  _232
REMARK   97  A    between atoms: _232  and  _233
REMARK   98  A    between atoms: _232  and  _235
REMARK   99  A    between atoms: _235  and  _236
REMARK  100  A    between atoms: _241  and  _243
REMARK  101  A    between atoms: _243  and  _244
REMARK  102  A    between atoms: _243  and  _246
REMARK  103  A    between atoms: _246  and  _247
REMARK  104  A    between atoms: _252  and  _253
REMARK  105  A    between atoms: _255  and  _257
REMARK  106  A    between atoms: _257  and  _258
REMARK  107  A    between atoms: _257  and  _260
REMARK  108  A    between atoms: _260  and  _261
REMARK  109  A    between atoms: _264  and  _266
REMARK  110  A    between atoms: _266  and  _267
REMARK  111  A    between atoms: _266  and  _269
REMARK  112  A    between atoms: _269  and  _270
REMARK  113  A    between atoms: _270  and  _271
REMARK  114  A    between atoms: _273  and  _275
REMARK  115  A    between atoms: _275  and  _276
REMARK  116  A    between atoms: _275  and  _278
REMARK  117  A    between atoms: _278  and  _279
REMARK  118  A    between atoms: _284  and  _286
REMARK  119  A    between atoms: _286  and  _287
REMARK  120  A    between atoms: _286  and  _289
REMARK  121  A    between atoms: _289  and  _290
REMARK  122  A    between atoms: _290  and  _291
REMARK  123  A    between atoms: _290  and  _292
REMARK  124  A    between atoms: _291  and  MG_664
REMARK  125  A    between atoms: _295  and  _297
REMARK  126  A    between atoms: _297  and  _298
REMARK  127  A    between atoms: _300  and  _302
REMARK  128  A    between atoms: _302  and  _303
REMARK  129  A    between atoms: _302  and  _305
REMARK  130  A    between atoms: _305  and  _306
REMARK  131  A    between atoms: _309  and  _311
REMARK  132  A    between atoms: _311  and  _312
REMARK  133  A    between atoms: _311  and  _314
REMARK  134  A    between atoms: _314  and  _315
REMARK  135  A    between atoms: _320  and  _321
REMARK  136  A    between atoms: _323  and  _325
REMARK  137  A    between atoms: _325  and  _326
REMARK  138  A    between atoms: _328  and  _330
REMARK  139  A    between atoms: _330  and  _331
REMARK  140  A    between atoms: _334  and  _336
REMARK  141  A    between atoms: _336  and  _337
REMARK  142  A    between atoms: _336  and  _339
REMARK  143  A    between atoms: _339  and  _340
REMARK  144  A    between atoms: _343  and  _345
REMARK  145  A    between atoms: _345  and  _346
REMARK  146  A    between atoms: _345  and  _348
REMARK  147  A    between atoms: _348  and  _349
REMARK  148  A    between atoms: _349  and  _350
REMARK  149  A    between atoms: _350  and  _351
REMARK  150  A    between atoms: _360  and  _362
REMARK  151  A    between atoms: _362  and  _363
REMARK  152  A    between atoms: _362  and  _365
REMARK  153  A    between atoms: _365  and  _366
REMARK  154  A    between atoms: _376  and  _378
REMARK  155  A    between atoms: _378  and  _379
REMARK  156  A    between atoms: _378  and  _381
REMARK  157  A    between atoms: _381  and  _382
REMARK  158  A    between atoms: _388  and  _390
REMARK  159  A    between atoms: _390  and  _391
REMARK  160  A    between atoms: _394  and  _396
REMARK  161  A    between atoms: _396  and  _397
REMARK  162  A    between atoms: _399  and  _401
REMARK  163  A    between atoms: _401  and  _402
REMARK  164  A    between atoms: _401  and  _404
REMARK  165  A    between atoms: _404  and  _405
REMARK  166  A    between atoms: _408  and  _410
REMARK  167  A    between atoms: _410  and  _411
REMARK  168  A    between atoms: _410  and  _413
REMARK  169  A    between atoms: _416  and  _418
REMARK  170  A    between atoms: _418  and  _419
REMARK  171  A    between atoms: _418  and  _421
REMARK  172  A    between atoms: _421  and  _422
REMARK  173  A    between atoms: _428  and  _430
REMARK  174  A    between atoms: _430  and  _431
REMARK  175  A    between atoms: _430  and  _433
REMARK  176  A    between atoms: _433  and  _434
REMARK  177  A    between atoms: _437  and  _439
REMARK  178  A    between atoms: _439  and  _440
REMARK  179  A    between atoms: _439  and  _442
REMARK  180  A    between atoms: _445  and  _447
REMARK  181  A    between atoms: _447  and  _448
REMARK  182  A    between atoms: _447  and  _450
REMARK  183  A    between atoms: _450  and  _451
REMARK  184  A    between atoms: _457  and  _458
REMARK  185  A    between atoms: _463  and  _465
REMARK  186  A    between atoms: _465  and  _466
REMARK  187  A    between atoms: _468  and  _470
REMARK  188  A    between atoms: _470  and  _471
REMARK  189  A    between atoms: _470  and  _473
REMARK  190  A    between atoms: _473  and  _474
REMARK  191  A    between atoms: _476  and  _478
REMARK  192  A    between atoms: _478  and  _479
REMARK  193  A    between atoms: _478  and  _481
REMARK  194  A    between atoms: _481  and  _482
REMARK  195  A    between atoms: _487  and  _489
REMARK  196  A    between atoms: _489  and  _490
REMARK  197  A    between atoms: _489  and  _492
REMARK  198  A    between atoms: _492  and  _493
REMARK  199  A    between atoms: _493  and  _494
REMARK  200  A    between atoms: _497  and  _499
REMARK  201  A    between atoms: _499  and  _500
REMARK  202  A    between atoms: _499  and  _502
REMARK  203  A    between atoms: _502  and  _503
REMARK  204  A    between atoms: _506  and  _508
REMARK  205  A    between atoms: _508  and  _509
REMARK  206  A    between atoms: _508  and  _511
REMARK  207  A    between atoms: _511  and  _512
REMARK  208  A    between atoms: _515  and  _517
REMARK  209  A    between atoms: _517  and  _518
REMARK  210  A    between atoms: _521  and  _523
REMARK  211  A    between atoms: _523  and  _524
REMARK  212  A    between atoms: _523  and  _526
REMARK  213  A    between atoms: _526  and  _527
REMARK  214  A    between atoms: _530  and  _532
REMARK  215  A    between atoms: _532  and  _533
REMARK  216  A    between atoms: _532  and  _535
REMARK  217  A    between atoms: _535  and  _536
REMARK  218  A    between atoms: _536  and  _537
REMARK  219  A    between atoms: _542  and  _544
REMARK  220  A    between atoms: _544  and  _545
REMARK  221  A    between atoms: _544  and  _547
REMARK  222  A    between atoms: _547  and  _548
REMARK  223  A    between atoms: _548  and  _549
REMARK  224  A    between atoms: _552  and  _554
REMARK  225  A    between atoms: _554  and  _555
REMARK  226  A    between atoms: _558  and  _560
REMARK  227  A    between atoms: _560  and  _561
REMARK  228  A    between atoms: _560  and  _563
REMARK  229  A    between atoms: _563  and  _564
REMARK  230  A    between atoms: _567  and  _569
REMARK  231  A    between atoms: _569  and  _570
REMARK  232  A    between atoms: _569  and  _572
REMARK  233  A    between atoms: _572  and  _573
REMARK  234  A    between atoms: _578  and  _580
REMARK  235  A    between atoms: _580  and  _581
REMARK  236  A    between atoms: _580  and  _583
REMARK  237  A    between atoms: _583  and  _584
REMARK  238  A    between atoms: _586  and  _588
REMARK  239  A    between atoms: _588  and  _589
REMARK  240  A    between atoms: _592  and  _594
REMARK  241  A    between atoms: _594  and  _595
REMARK  242  A    between atoms: _598  and  _600
REMARK  243  A    between atoms: _600  and  _601
REMARK  244  A    between atoms: _603  and  _605
REMARK  245  A    between atoms: _605  and  _606
REMARK  246  A    between atoms: _605  and  _608
REMARK  247  A    between atoms: _608  and  _609
REMARK  248  A    between atoms: _612  and  _614
REMARK  249  A    between atoms: _614  and  _615
REMARK  250  A    between atoms: _617  and  _619
REMARK  251  A    between atoms: _619  and  _620
REMARK  252  A    between atoms: _619  and  _622
REMARK  253  A    between atoms: _622  and  _623
REMARK  254  A    between atoms: _628  and  _630
REMARK  255  A    between atoms: _630  and  _631
REMARK  256  A    between atoms: _634  and  _636
REMARK  257  A    between atoms: _636  and  _637
REMARK  258  A    between atoms: _636  and  _639
REMARK  259  A    between atoms: _639  and  _640
REMARK  260  A    between atoms: _640  and  _641
REMARK  261  A    between atoms: _646  and  _648
REMARK  262  A    between atoms: _648  and  _649
REMARK  263  A    between atoms: _648  and  _651
REMARK  264  A    between atoms: _651  and  _652
REMARK  265  A    between atoms: _655  and  _657
REMARK  266  A    between atoms: _657  and  _658
REMARK  267  A    between atoms: _657  and  _660
REMARK  268  A    between atoms: _660  and  _661
REMARK                            x       y       z     vdW  Elec       q    Type
REMARK                         _______ _______ _______ _____ _____    ______ ____
ROOT
ATOM      1  CA  THR A   4     110.470  39.714  94.472  0.00  0.00    +0.176 C 
ENDROOT
BRANCH   1   3
ATOM      2  C   SER A   3     109.733  37.599  95.412  0.00  0.00    +0.243 C 
ATOM      3  N   THR A   4     109.729  38.917  95.448  0.00  0.00    -0.295 N 
ATOM      4  H   THR A   4     109.185  39.402  96.190  0.00  0.00    +0.150 HD
ATOM      5  O   SER A   3     110.594  36.952  94.839  0.00  0.00    -0.273 OA
BRANCH   2   6
ATOM      6  CA  SER A   3     108.556  36.905  96.095  0.00  0.00    +0.178 C 
BRANCH   6   9
ATOM      7  C   GLU A   2     106.372  37.449  95.020  0.00  0.00    +0.241 C 
ATOM      8  O   GLU A   2     106.006  38.208  95.904  0.00  0.00    -0.273 OA
ATOM      9  N   SER A   3     107.535  36.787  95.046  0.00  0.00    -0.295 N 
ATOM     10  H   SER A   3     107.732  36.136  94.259  0.00  0.00    +0.150 HD
BRANCH   7  11
ATOM     11  CA  GLU A   2     105.545  37.210  93.728  0.00  0.00    +0.149 C 
BRANCH  11  13
ATOM     12  C   ASN A   1     105.689  35.381  92.090  0.00  0.00    +0.239 C 
ATOM     13  N   GLU A   2     105.585  35.775  93.354  0.00  0.00    -0.297 N 
ATOM     14  H   GLU A   2     105.530  35.056  94.104  0.00  0.00    +0.150 HD
ATOM     15  O   ASN A   1     105.478  36.143  91.132  0.00  0.00    -0.274 OA
BRANCH  12  16
ATOM     16  CA  ASN A   1     106.075  33.918  91.842  0.00  0.00    +0.154 C 
BRANCH  16  17
ATOM     17  N   ASN A   1     105.040  33.155  91.153  0.00  0.00    -0.238 NA
ATOM     18  H   ASN A   1     104.761  33.458  90.198  0.00  0.00    +0.142 HD
ENDBRANCH  16  17
BRANCH  16  19
ATOM     19  CB  ASN A   1     107.373  33.904  91.034  0.00  0.00    +0.111 C 
BRANCH  19  20
ATOM     20  CG  ASN A   1     108.492  34.675  91.693  0.00  0.00    +0.221 C 
ATOM     21  OD1 ASN A   1     108.490  34.920  92.922  0.00  0.00    -0.275 OA
ATOM     22  ND2 ASN A   1     109.491  35.071  90.874  0.00  0.00    -0.329 N 
ATOM     23 HD21 ASN A   1     110.299  35.601  91.258  0.00  0.00    +0.145 HD
ATOM     24 HD22 ASN A   1     109.452  34.846  89.859  0.00  0.00    +0.145 HD
ENDBRANCH  19  20
ENDBRANCH  16  19
ENDBRANCH  12  16
ENDBRANCH  11  13
BRANCH  11  25
ATOM     25  CB  GLU A   2     104.091  37.760  93.809  0.00  0.00    +0.041 C 
BRANCH  25  26
ATOM     26  CG  GLU A   2     103.943  39.234  93.533  0.00  0.00    +0.116 C 
BRANCH  26  27
ATOM     27  CD  GLU A   2     102.491  39.625  93.258  0.00  0.00    +0.365 C 
ATOM     28  OE2 GLU A   2     101.822  40.131  94.188  0.00  0.00    -0.246 OA
ATOM     29  OE1 GLU A   2     102.030  39.390  92.122  0.00  0.00    -0.246 OA
ENDBRANCH  26  27
ENDBRANCH  25  26
ENDBRANCH  11  25
ENDBRANCH   7  11
ENDBRANCH   6   9
BRANCH   6  30
ATOM     30  CB  SER A   3     108.933  35.496  96.588  0.00  0.00    +0.166 C 
BRANCH  30  31
ATOM     31  OG  SER A   3     109.915  35.448  97.611  0.00  0.00    -0.380 OA
ATOM     32  H   SER A   3     109.589  35.943  98.404  0.00  0.00    +0.211 HD
ENDBRANCH  30  31
ENDBRANCH   6  30
ENDBRANCH   2   6
ENDBRANCH   1   3
BRANCH   1  33
ATOM     33  C   THR A   4     112.007  39.664  94.636  0.00  0.00    +0.243 C 
ATOM     34  N   SER A   5     112.502  39.344  95.825  0.00  0.00    -0.295 N 
ATOM     35  H   SER A   5     111.850  39.117  96.603  0.00  0.00    +0.150 HD
ATOM     36  O   THR A   4     112.736  39.901  93.674  0.00  0.00    -0.273 OA
BRANCH  34  37
ATOM     37  CA  SER A   5     113.967  39.303  96.068  0.00  0.00    +0.178 C 
BRANCH  37  38
ATOM     38  C   SER A   5     114.598  37.935  95.809  0.00  0.00    +0.243 C 
ATOM     39  O   SER A   5     115.839  37.797  95.887  0.00  0.00    -0.273 OA
ATOM     40  N   THR A   6     113.771  36.946  95.493  0.00  0.00    -0.295 N 
ATOM     41  H   THR A   6     112.770  37.166  95.318  0.00  0.00    +0.150 HD
BRANCH  40  42
ATOM     42  CA  THR A   6     114.229  35.525  95.379  0.00  0.00    +0.176 C 
BRANCH  42  43
ATOM     43  C   THR A   6     114.071  34.854  93.998  0.00  0.00    +0.243 C 
ATOM     44  O   THR A   6     114.292  33.635  93.838  0.00  0.00    -0.273 OA
ATOM     45  N   THR A   7     113.723  35.646  92.984  0.00  0.00    -0.296 N 
ATOM     46  H   THR A   7     113.675  36.673  93.140  0.00  0.00    +0.150 HD
BRANCH  45  47
ATOM     47  CA  THR A   7     113.410  35.121  91.674  0.00  0.00    +0.164 C 
BRANCH  47  48
ATOM     48  CB  THR A   7     112.917  36.270  90.771  0.00  0.00    +0.136 C 
ATOM     49  CG2 THR A   7     112.642  35.761  89.337  0.00  0.00    +0.034 C 
BRANCH  48  50
ATOM     50  OG1 THR A   7     111.734  36.865  91.358  0.00  0.00    -0.382 OA
ATOM     51  HG1 THR A   7     111.416  37.603  90.780  0.00  0.00    +0.210 HD
ENDBRANCH  48  50
ENDBRANCH  47  48
BRANCH  47  52
ATOM     52  C   THR A   7     114.557  34.334  90.991  0.00  0.00    +0.229 C 
ATOM     53  O   THR A   7     114.323  33.257  90.436  0.00  0.00    -0.286 OA
ENDBRANCH  47  52
ENDBRANCH  45  47
ENDBRANCH  42  43
BRANCH  42  54
ATOM     54  CB  THR A   6     113.541  34.660  96.454  0.00  0.00    +0.137 C 
ATOM     55  CG2 THR A   6     113.834  35.212  97.839  0.00  0.00    +0.034 C 
BRANCH  54  56
ATOM     56  OG1 THR A   6     112.121  34.646  96.229  0.00  0.00    -0.382 OA
ATOM     57  HG1 THR A   6     111.934  34.268  95.333  0.00  0.00    +0.210 HD
ENDBRANCH  54  56
ENDBRANCH  42  54
ENDBRANCH  40  42
ENDBRANCH  37  38
BRANCH  37  58
ATOM     58  CB  SER A   5     114.340  39.766  97.471  0.00  0.00    +0.166 C 
BRANCH  58  59
ATOM     59  OG  SER A   5     113.922  38.853  98.470  0.00  0.00    -0.380 OA
ATOM     60  H   SER A   5     112.938  38.752  98.432  0.00  0.00    +0.211 HD
ENDBRANCH  58  59
ENDBRANCH  37  58
ENDBRANCH  34  37
ENDBRANCH   1  33
BRANCH   1  61
ATOM     61  CB  THR A   4     109.903  41.158  94.423  0.00  0.00    +0.137 C 
ATOM     62  CG2 THR A   4     108.570  41.173  93.651  0.00  0.00    +0.034 C 
BRANCH  61  63
ATOM     63  OG1 THR A   4     109.680  41.668  95.746  0.00  0.00    -0.382 OA
ATOM     64  HG1 THR A   4     110.536  41.679  96.243  0.00  0.00    +0.210 HD
ENDBRANCH  61  63
ENDBRANCH   1  61
TORSDOF 29
REMARK  Name = ../refined-set-2016/3fzn/3fzn_pocket.pdb
REMARK  268 active torsions:
REMARK  status: ('A' for Active; 'I' for Inactive)
REMARK    1  A    between atoms: _1  and  _3
REMARK    2  A    between atoms: _3  and  _4
REMARK    3  A    between atoms: _6  and  _8
REMARK    4  A    between atoms: _8  and  _9
REMARK    5  A    between atoms: _8  and  _11
REMARK    6  A    between atoms: _11  and  _12
REMARK    7  A    between atoms: _17  and  _19
REMARK    8  A    between atoms: _19  and  _20
REMARK    9  A    between atoms: _19  and  _22
REMARK   10  A    between atoms: _22  and  _23
REMARK   11  A    between atoms: _25  and  _27
REMARK   12  A    between atoms: _27  and  _28
REMARK   13  A    between atoms: _27  and  _30
REMARK   14  A    between atoms: _30  and  _31
REMARK   15  A    between atoms: _36  and  _38
REMARK   16  A    between atoms: _38  and  _39
REMARK   17  A    between atoms: _38  and  _41
REMARK   18  A    between atoms: _41  and  _42
REMARK   19  A    between atoms: _42  and  _43
REMARK   20  A    between atoms: _49  and  _50
REMARK   21  A    between atoms: _55  and  _57
REMARK   22  A    between atoms: _57  and  _58
REMARK   23  A    between atoms: _57  and  _60
REMARK   24  A    between atoms: _60  and  _61
REMARK   25  A    between atoms: _66  and  _68
REMARK   26  A    between atoms: _68  and  _69
REMARK   27  A    between atoms: _68  and  _71
REMARK   28  A    between atoms: _71  and  _72
REMARK   29  A    between atoms: _72  and  _73
REMARK   30  A    between atoms: _76  and  _78
REMARK   31  A    between atoms: _78  and  _79
REMARK   32  A    between atoms: _78  and  _81
REMARK   33  A    between atoms: _81  and  _82
REMARK   34  A    between atoms: _84  and  _86
REMARK   35  A    between atoms: _86  and  _87
REMARK   36  A    between atoms: _86  and  _89
REMARK   37  A    between atoms: _89  and  _90
REMARK   38  A    between atoms: _93  and  _95
REMARK   39  A    between atoms: _95  and  _96
REMARK   40  A    between atoms: _95  and  _98
REMARK   41  A    between atoms: _98  and  _99
REMARK   42  A    between atoms: _101  and  _103
REMARK   43  A    between atoms: _103  and  _104
REMARK   44  A    between atoms: _103  and  _106
REMARK   45  A    between atoms: _106  and  _107
REMARK   46  A    between atoms: _110  and  _112
REMARK   47  A    between atoms: _112  and  _113
REMARK   48  A    between atoms: _112  and  _115
REMARK   49  A    between atoms: _115  and  _116
REMARK   50  A    between atoms: _119  and  _121
REMARK   51  A    between atoms: _121  and  _122
REMARK   52  A    between atoms: _121  and  _124
REMARK   53  A    between atoms: _124  and  _125
REMARK   54  A    between atoms: _131  and  _133
REMARK   55  A    between atoms: _133  and  _134
REMARK   56  A    between atoms: _133  and  _136
REMARK   57  A    between atoms: _138  and  _140
REMARK   58  A    between atoms: _140  and  _141
REMARK   59  A    between atoms: _144  and  _146
REMARK   60  A    between atoms: _146  and  _147
REMARK   61  A    between atoms: _149  and  _151
REMARK   62  A    between atoms: _151  and  _152
REMARK   63  A    between atoms: _154  and  _156
REMARK   64  A    between atoms: _156  and  _157
REMARK   65  A    between atoms: _156  and  _159
REMARK   66  A    between atoms: _159  and  _160
REMARK   67  A    between atoms: _163  and  _165
REMARK   68  A    between atoms: _165  and  _166
REMARK   69  A    between atoms: _168  and  _170
REMARK   70  A    between atoms: _170  and  _171
REMARK   71  A    between atoms: _170  and  _173
REMARK   72  A    between atoms: _173  and  _174
REMARK   73  A    between atoms: _180  and  _182
REMARK   74  A    between atoms: _182  and  _183
REMARK   75  A    between atoms: _182  and  _185
REMARK   76  A    between atoms: _188  and  _190
REMARK   77  A    between atoms: _190  and  _191
REMARK   78  A    between atoms: _190  and  _193
REMARK   79  A    between atoms: _193  and  _194
REMARK   80  A    between atoms: _197  and  _199
REMARK   81  A    between atoms: _199  and  _200
REMARK   82  A    between atoms: _202  and  _204
REMARK   83  A    between atoms: _204  and  _205
REMARK   84  A    between atoms: _204  and  _207
REMARK   85  A    between atoms: _207  and  _208
REMARK   86  A    between atoms: _208  and  _209
REMARK   87  A    between atoms: _209  and  MG_664
REMARK   88  A    between atoms: _211  and  _213
REMARK   89  A    between atoms: _213  and  _214
REMARK   90  A    between atoms: _216  and  _218
REMARK   91  A    between atoms: _218  and  _219
REMARK   92  A    between atoms: _218  and  _221
REMARK   93  A    between atoms: _221  and  _222
REMARK   94  A    between atoms: _224  and  _226
REMARK   95  A    between atoms: _226  and  _227
REMARK   96  A    between atoms: _230  and  _232
REMARK   97  A    between atoms: _232  and  _233
REMARK   98  A    between atoms: _232  and  _235
REMARK   99  A    between atoms: _235  and  _236
REMARK  100  A    between atoms: _241  and  _243
REMARK  101  A    between atoms: _243  and  _244
REMARK  102  A    between atoms: _243  and  _246
REMARK  103  A    between atoms: _246  and  _247
REMARK  104  A    between atoms: _252  and  _253
REMARK  105  A    between atoms: _255  and  _257
REMARK  106  A    between atoms: _257  and  _258
REMARK  107  A    between atoms: _257  and  _260
REMARK  108  A    between atoms: _260  and  _261
REMARK  109  A    between atoms: _264  and  _266
REMARK  110  A    between atoms: _266  and  _267
REMARK  111  A    between atoms: _266  and  _269
REMARK  112  A    between atoms: _269  and  _270
REMARK  113  A    between atoms: _270  and  _271
REMARK  114  A    between atoms: _273  and  _275
REMARK  115  A    between atoms: _275  and  _276
REMARK  116  A    between atoms: _275  and  _278
REMARK  117  A    between atoms: _278  and  _279
REMARK  118  A    between atoms: _284  and  _286
REMARK  119  A    between atoms: _286  and  _287
REMARK  120  A    between atoms: _286  and  _289
REMARK  121  A    between atoms: _289  and  _290
REMARK  122  A    between atoms: _290  and  _291
REMARK  123  A    between atoms: _290  and  _292
REMARK  124  A    between atoms: _291  and  MG_664
REMARK  125  A    between atoms: _295  and  _297
REMARK  126  A    between atoms: _297  and  _298
REMARK  127  A    between atoms: _300  and  _302
REMARK  128  A    between atoms: _302  and  _303
REMARK  129  A    between atoms: _302  and  _305
REMARK  130  A    between atoms: _305  and  _306
REMARK  131  A    between atoms: _309  and  _311
REMARK  132  A    between atoms: _311  and  _312
REMARK  133  A    between atoms: _311  and  _314
REMARK  134  A    between atoms: _314  and  _315
REMARK  135  A    between atoms: _320  and  _321
REMARK  136  A    between atoms: _323  and  _325
REMARK  137  A    between atoms: _325  and  _326
REMARK  138  A    between atoms: _328  and  _330
REMARK  139  A    between atoms: _330  and  _331
REMARK  140  A    between atoms: _334  and  _336
REMARK  141  A    between atoms: _336  and  _337
REMARK  142  A    between atoms: _336  and  _339
REMARK  143  A    between atoms: _339  and  _340
REMARK  144  A    between atoms: _343  and  _345
REMARK  145  A    between atoms: _345  and  _346
REMARK  146  A    between atoms: _345  and  _348
REMARK  147  A    between atoms: _348  and  _349
REMARK  148  A    between atoms: _349  and  _350
REMARK  149  A    between atoms: _350  and  _351
REMARK  150  A    between atoms: _360  and  _362
REMARK  151  A    between atoms: _362  and  _363
REMARK  152  A    between atoms: _362  and  _365
REMARK  153  A    between atoms: _365  and  _366
REMARK  154  A    between atoms: _376  and  _378
REMARK  155  A    between atoms: _378  and  _379
REMARK  156  A    between atoms: _378  and  _381
REMARK  157  A    between atoms: _381  and  _382
REMARK  158  A    between atoms: _388  and  _390
REMARK  159  A    between atoms: _390  and  _391
REMARK  160  A    between atoms: _394  and  _396
REMARK  161  A    between atoms: _396  and  _397
REMARK  162  A    between atoms: _399  and  _401
REMARK  163  A    between atoms: _401  and  _402
REMARK  164  A    between atoms: _401  and  _404
REMARK  165  A    between atoms: _404  and  _405
REMARK  166  A    between atoms: _408  and  _410
REMARK  167  A    between atoms: _410  and  _411
REMARK  168  A    between atoms: _410  and  _413
REMARK  169  A    between atoms: _416  and  _418
REMARK  170  A    between atoms: _418  and  _419
REMARK  171  A    between atoms: _418  and  _421
REMARK  172  A    between atoms: _421  and  _422
REMARK  173  A    between atoms: _428  and  _430
REMARK  174  A    between atoms: _430  and  _431
REMARK  175  A    between atoms: _430  and  _433
REMARK  176  A    between atoms: _433  and  _434
REMARK  177  A    between atoms: _437  and  _439
REMARK  178  A    between atoms: _439  and  _440
REMARK  179  A    between atoms: _439  and  _442
REMARK  180  A    between atoms: _445  and  _447
REMARK  181  A    between atoms: _447  and  _448
REMARK  182  A    between atoms: _447  and  _450
REMARK  183  A    between atoms: _450  and  _451
REMARK  184  A    between atoms: _457  and  _458
REMARK  185  A    between atoms: _463  and  _465
REMARK  186  A    between atoms: _465  and  _466
REMARK  187  A    between atoms: _468  and  _470
REMARK  188  A    between atoms: _470  and  _471
REMARK  189  A    between atoms: _470  and  _473
REMARK  190  A    between atoms: _473  and  _474
REMARK  191  A    between atoms: _476  and  _478
REMARK  192  A    between atoms: _478  and  _479
REMARK  193  A    between atoms: _478  and  _481
REMARK  194  A    between atoms: _481  and  _482
REMARK  195  A    between atoms: _487  and  _489
REMARK  196  A    between atoms: _489  and  _490
REMARK  197  A    between atoms: _489  and  _492
REMARK  198  A    between atoms: _492  and  _493
REMARK  199  A    between atoms: _493  and  _494
REMARK  200  A    between atoms: _497  and  _499
REMARK  201  A    between atoms: _499  and  _500
REMARK  202  A    between atoms: _499  and  _502
REMARK  203  A    between atoms: _502  and  _503
REMARK  204  A    between atoms: _506  and  _508
REMARK  205  A    between atoms: _508  and  _509
REMARK  206  A    between atoms: _508  and  _511
REMARK  207  A    between atoms: _511  and  _512
REMARK  208  A    between atoms: _515  and  _517
REMARK  209  A    between atoms: _517  and  _518
REMARK  210  A    between atoms: _521  and  _523
REMARK  211  A    between atoms: _523  and  _524
REMARK  212  A    between atoms: _523  and  _526
REMARK  213  A    between atoms: _526  and  _527
REMARK  214  A    between atoms: _530  and  _532
REMARK  215  A    between atoms: _532  and  _533
REMARK  216  A    between atoms: _532  and  _535
REMARK  217  A    between atoms: _535  and  _536
REMARK  218  A    between atoms: _536  and  _537
REMARK  219  A    between atoms: _542  and  _544
REMARK  220  A    between atoms: _544  and  _545
REMARK  221  A    between atoms: _544  and  _547
REMARK  222  A    between atoms: _547  and  _548
REMARK  223  A    between atoms: _548  and  _549
REMARK  224  A    between atoms: _552  and  _554
REMARK  225  A    between atoms: _554  and  _555
REMARK  226  A    between atoms: _558  and  _560
REMARK  227  A    between atoms: _560  and  _561
REMARK  228  A    between atoms: _560  and  _563
REMARK  229  A    between atoms: _563  and  _564
REMARK  230  A    between atoms: _567  and  _569
REMARK  231  A    between atoms: _569  and  _570
REMARK  232  A    between atoms: _569  and  _572
REMARK  233  A    between atoms: _572  and  _573
REMARK  234  A    between atoms: _578  and  _580
REMARK  235  A    between atoms: _580  and  _581
REMARK  236  A    between atoms: _580  and  _583
REMARK  237  A    between atoms: _583  and  _584
REMARK  238  A    between atoms: _586  and  _588
REMARK  239  A    between atoms: _588  and  _589
REMARK  240  A    between atoms: _592  and  _594
REMARK  241  A    between atoms: _594  and  _595
REMARK  242  A    between atoms: _598  and  _600
REMARK  243  A    between atoms: _600  and  _601
REMARK  244  A    between atoms: _603  and  _605
REMARK  245  A    between atoms: _605  and  _606
REMARK  246  A    between atoms: _605  and  _608
REMARK  247  A    between atoms: _608  and  _609
REMARK  248  A    between atoms: _612  and  _614
REMARK  249  A    between atoms: _614  and  _615
REMARK  250  A    between atoms: _617  and  _619
REMARK  251  A    between atoms: _619  and  _620
REMARK  252  A    between atoms: _619  and  _622
REMARK  253  A    between atoms: _622  and  _623
REMARK  254  A    between atoms: _628  and  _630
REMARK  255  A    between atoms: _630  and  _631
REMARK  256  A    between atoms: _634  and  _636
REMARK  257  A    between atoms: _636  and  _637
REMARK  258  A    between atoms: _636  and  _639
REMARK  259  A    between atoms: _639  and  _640
REMARK  260  A    between atoms: _640  and  _641
REMARK  261  A    between atoms: _646  and  _648
REMARK  262  A    between atoms: _648  and  _649
REMARK  263  A    between atoms: _648  and  _651
REMARK  264  A    between atoms: _651  and  _652
REMARK  265  A    between atoms: _655  and  _657
REMARK  266  A    between atoms: _657  and  _658
REMARK  267  A    between atoms: _657  and  _660
REMARK  268  A    between atoms: _660  and  _661
REMARK                            x       y       z     vdW  Elec       q    Type
REMARK                         _______ _______ _______ _____ _____    ______ ____
ROOT
ATOM      1  CA  PHE A   1     104.912  36.157  87.337  0.00  0.00    +0.149 C 
ENDROOT
BRANCH   1   2
ATOM      2  C   PHE A   1     104.312  37.418  86.733  0.00  0.00    +0.239 C 
ATOM      3  N   CYS A   2     103.985  38.410  87.575  0.00  0.00    -0.297 N 
ATOM      4  H   CYS A   2     104.203  38.299  88.586  0.00  0.00    +0.150 HD
ATOM      5  O   PHE A   1     104.175  37.484  85.508  0.00  0.00    -0.274 OA
BRANCH   3   6
ATOM      6  CA  CYS A   2     103.328  39.653  87.123  0.00  0.00    +0.149 C 
BRANCH   6   7
ATOM      7  CB  CYS A   2     103.209  40.655  88.282  0.00  0.00    +0.096 C 
ATOM      8  SG  CYS A   2     104.762  40.862  89.301  0.00  0.00    -0.080 S 
ENDBRANCH   6   7
BRANCH   6   9
ATOM      9  C   CYS A   2     104.034  40.302  85.928  0.00  0.00    +0.228 C 
ATOM     10  O   CYS A   2     105.175  40.772  86.024  0.00  0.00    -0.286 OA
ENDBRANCH   6   9
ENDBRANCH   3   6
ENDBRANCH   1   2
BRANCH   1  11
ATOM     11  N   PHE A   1     104.368  34.968  86.619  0.00  0.00    -0.238 NA
ATOM     12  H   PHE A   1     104.238  35.058  85.591  0.00  0.00    +0.142 HD
ENDBRANCH   1  11
BRANCH   1  13
ATOM     13  CB  PHE A   1     106.456  36.162  87.228  0.00  0.00    +0.053 C 
BRANCH  13  14
ATOM     14  CG  PHE A   1     107.125  37.467  87.572  0.00  0.00    -0.020 A 
ATOM     15  CD2 PHE A   1     107.607  37.696  88.860  0.00  0.00    -0.004 A 
ATOM     16  CE2 PHE A   1     108.281  38.870  89.170  0.00  0.00    -0.000 A 
ATOM     17  CZ  PHE A   1     108.492  39.824  88.173  0.00  0.00    -0.000 A 
ATOM     18  CE1 PHE A   1     108.050  39.598  86.874  0.00  0.00    -0.000 A 
ATOM     19  CD1 PHE A   1     107.380  38.425  86.570  0.00  0.00    -0.004 A 
ENDBRANCH  13  14
ENDBRANCH   1  13
TORSDOF 7
REMARK  Name = ../refined-set-2016/3fzn/3fzn_pocket.pdb
REMARK  268 active torsions:
REMARK  status: ('A' for Active; 'I' for Inactive)
REMARK    1  A    between atoms: _1  and  _3
REMARK    2  A    between atoms: _3  and  _4
REMARK    3  A    between atoms: _6  and  _8
REMARK    4  A    between atoms: _8  and  _9
REMARK    5  A    between atoms: _8  and  _11
REMARK    6  A    between atoms: _11  and  _12
REMARK    7  A    between atoms: _17  and  _19
REMARK    8  A    between atoms: _19  and  _20
REMARK    9  A    between atoms: _19  and  _22
REMARK   10  A    between atoms: _22  and  _23
REMARK   11  A    between atoms: _25  and  _27
REMARK   12  A    between atoms: _27  and  _28
REMARK   13  A    between atoms: _27  and  _30
REMARK   14  A    between atoms: _30  and  _31
REMARK   15  A    between atoms: _36  and  _38
REMARK   16  A    between atoms: _38  and  _39
REMARK   17  A    between atoms: _38  and  _41
REMARK   18  A    between atoms: _41  and  _42
REMARK   19  A    between atoms: _42  and  _43
REMARK   20  A    between atoms: _49  and  _50
REMARK   21  A    between atoms: _55  and  _57
REMARK   22  A    between atoms: _57  and  _58
REMARK   23  A    between atoms: _57  and  _60
REMARK   24  A    between atoms: _60  and  _61
REMARK   25  A    between atoms: _66  and  _68
REMARK   26  A    between atoms: _68  and  _69
REMARK   27  A    between atoms: _68  and  _71
REMARK   28  A    between atoms: _71  and  _72
REMARK   29  A    between atoms: _72  and  _73
REMARK   30  A    between atoms: _76  and  _78
REMARK   31  A    between atoms: _78  and  _79
REMARK   32  A    between atoms: _78  and  _81
REMARK   33  A    between atoms: _81  and  _82
REMARK   34  A    between atoms: _84  and  _86
REMARK   35  A    between atoms: _86  and  _87
REMARK   36  A    between atoms: _86  and  _89
REMARK   37  A    between atoms: _89  and  _90
REMARK   38  A    between atoms: _93  and  _95
REMARK   39  A    between atoms: _95  and  _96
REMARK   40  A    between atoms: _95  and  _98
REMARK   41  A    between atoms: _98  and  _99
REMARK   42  A    between atoms: _101  and  _103
REMARK   43  A    between atoms: _103  and  _104
REMARK   44  A    between atoms: _103  and  _106
REMARK   45  A    between atoms: _106  and  _107
REMARK   46  A    between atoms: _110  and  _112
REMARK   47  A    between atoms: _112  and  _113
REMARK   48  A    between atoms: _112  and  _115
REMARK   49  A    between atoms: _115  and  _116
REMARK   50  A    between atoms: _119  and  _121
REMARK   51  A    between atoms: _121  and  _122
REMARK   52  A    between atoms: _121  and  _124
REMARK   53  A    between atoms: _124  and  _125
REMARK   54  A    between atoms: _131  and  _133
REMARK   55  A    between atoms: _133  and  _134
REMARK   56  A    between atoms: _133  and  _136
REMARK   57  A    between atoms: _138  and  _140
REMARK   58  A    between atoms: _140  and  _141
REMARK   59  A    between atoms: _144  and  _146
REMARK   60  A    between atoms: _146  and  _147
REMARK   61  A    between atoms: _149  and  _151
REMARK   62  A    between atoms: _151  and  _152
REMARK   63  A    between atoms: _154  and  _156
REMARK   64  A    between atoms: _156  and  _157
REMARK   65  A    between atoms: _156  and  _159
REMARK   66  A    between atoms: _159  and  _160
REMARK   67  A    between atoms: _163  and  _165
REMARK   68  A    between atoms: _165  and  _166
REMARK   69  A    between atoms: _168  and  _170
REMARK   70  A    between atoms: _170  and  _171
REMARK   71  A    between atoms: _170  and  _173
REMARK   72  A    between atoms: _173  and  _174
REMARK   73  A    between atoms: _180  and  _182
REMARK   74  A    between atoms: _182  and  _183
REMARK   75  A    between atoms: _182  and  _185
REMARK   76  A    between atoms: _188  and  _190
REMARK   77  A    between atoms: _190  and  _191
REMARK   78  A    between atoms: _190  and  _193
REMARK   79  A    between atoms: _193  and  _194
REMARK   80  A    between atoms: _197  and  _199
REMARK   81  A    between atoms: _199  and  _200
REMARK   82  A    between atoms: _202  and  _204
REMARK   83  A    between atoms: _204  and  _205
REMARK   84  A    between atoms: _204  and  _207
REMARK   85  A    between atoms: _207  and  _208
REMARK   86  A    between atoms: _208  and  _209
REMARK   87  A    between atoms: _209  and  MG_664
REMARK   88  A    between atoms: _211  and  _213
REMARK   89  A    between atoms: _213  and  _214
REMARK   90  A    between atoms: _216  and  _218
REMARK   91  A    between atoms: _218  and  _219
REMARK   92  A    between atoms: _218  and  _221
REMARK   93  A    between atoms: _221  and  _222
REMARK   94  A    between atoms: _224  and  _226
REMARK   95  A    between atoms: _226  and  _227
REMARK   96  A    between atoms: _230  and  _232
REMARK   97  A    between atoms: _232  and  _233
REMARK   98  A    between atoms: _232  and  _235
REMARK   99  A    between atoms: _235  and  _236
REMARK  100  A    between atoms: _241  and  _243
REMARK  101  A    between atoms: _243  and  _244
REMARK  102  A    between atoms: _243  and  _246
REMARK  103  A    between atoms: _246  and  _247
REMARK  104  A    between atoms: _252  and  _253
REMARK  105  A    between atoms: _255  and  _257
REMARK  106  A    between atoms: _257  and  _258
REMARK  107  A    between atoms: _257  and  _260
REMARK  108  A    between atoms: _260  and  _261
REMARK  109  A    between atoms: _264  and  _266
REMARK  110  A    between atoms: _266  and  _267
REMARK  111  A    between atoms: _266  and  _269
REMARK  112  A    between atoms: _269  and  _270
REMARK  113  A    between atoms: _270  and  _271
REMARK  114  A    between atoms: _273  and  _275
REMARK  115  A    between atoms: _275  and  _276
REMARK  116  A    between atoms: _275  and  _278
REMARK  117  A    between atoms: _278  and  _279
REMARK  118  A    between atoms: _284  and  _286
REMARK  119  A    between atoms: _286  and  _287
REMARK  120  A    between atoms: _286  and  _289
REMARK  121  A    between atoms: _289  and  _290
REMARK  122  A    between atoms: _290  and  _291
REMARK  123  A    between atoms: _290  and  _292
REMARK  124  A    between atoms: _291  and  MG_664
REMARK  125  A    between atoms: _295  and  _297
REMARK  126  A    between atoms: _297  and  _298
REMARK  127  A    between atoms: _300  and  _302
REMARK  128  A    between atoms: _302  and  _303
REMARK  129  A    between atoms: _302  and  _305
REMARK  130  A    between atoms: _305  and  _306
REMARK  131  A    between atoms: _309  and  _311
REMARK  132  A    between atoms: _311  and  _312
REMARK  133  A    between atoms: _311  and  _314
REMARK  134  A    between atoms: _314  and  _315
REMARK  135  A    between atoms: _320  and  _321
REMARK  136  A    between atoms: _323  and  _325
REMARK  137  A    between atoms: _325  and  _326
REMARK  138  A    between atoms: _328  and  _330
REMARK  139  A    between atoms: _330  and  _331
REMARK  140  A    between atoms: _334  and  _336
REMARK  141  A    between atoms: _336  and  _337
REMARK  142  A    between atoms: _336  and  _339
REMARK  143  A    between atoms: _339  and  _340
REMARK  144  A    between atoms: _343  and  _345
REMARK  145  A    between atoms: _345  and  _346
REMARK  146  A    between atoms: _345  and  _348
REMARK  147  A    between atoms: _348  and  _349
REMARK  148  A    between atoms: _349  and  _350
REMARK  149  A    between atoms: _350  and  _351
REMARK  150  A    between atoms: _360  and  _362
REMARK  151  A    between atoms: _362  and  _363
REMARK  152  A    between atoms: _362  and  _365
REMARK  153  A    between atoms: _365  and  _366
REMARK  154  A    between atoms: _376  and  _378
REMARK  155  A    between atoms: _378  and  _379
REMARK  156  A    between atoms: _378  and  _381
REMARK  157  A    between atoms: _381  and  _382
REMARK  158  A    between atoms: _388  and  _390
REMARK  159  A    between atoms: _390  and  _391
REMARK  160  A    between atoms: _394  and  _396
REMARK  161  A    between atoms: _396  and  _397
REMARK  162  A    between atoms: _399  and  _401
REMARK  163  A    between atoms: _401  and  _402
REMARK  164  A    between atoms: _401  and  _404
REMARK  165  A    between atoms: _404  and  _405
REMARK  166  A    between atoms: _408  and  _410
REMARK  167  A    between atoms: _410  and  _411
REMARK  168  A    between atoms: _410  and  _413
REMARK  169  A    between atoms: _416  and  _418
REMARK  170  A    between atoms: _418  and  _419
REMARK  171  A    between atoms: _418  and  _421
REMARK  172  A    between atoms: _421  and  _422
REMARK  173  A    between atoms: _428  and  _430
REMARK  174  A    between atoms: _430  and  _431
REMARK  175  A    between atoms: _430  and  _433
REMARK  176  A    between atoms: _433  and  _434
REMARK  177  A    between atoms: _437  and  _439
REMARK  178  A    between atoms: _439  and  _440
REMARK  179  A    between atoms: _439  and  _442
REMARK  180  A    between atoms: _445  and  _447
REMARK  181  A    between atoms: _447  and  _448
REMARK  182  A    between atoms: _447  and  _450
REMARK  183  A    between atoms: _450  and  _451
REMARK  184  A    between atoms: _457  and  _458
REMARK  185  A    between atoms: _463  and  _465
REMARK  186  A    between atoms: _465  and  _466
REMARK  187  A    between atoms: _468  and  _470
REMARK  188  A    between atoms: _470  and  _471
REMARK  189  A    between atoms: _470  and  _473
REMARK  190  A    between atoms: _473  and  _474
REMARK  191  A    between atoms: _476  and  _478
REMARK  192  A    between atoms: _478  and  _479
REMARK  193  A    between atoms: _478  and  _481
REMARK  194  A    between atoms: _481  and  _482
REMARK  195  A    between atoms: _487  and  _489
REMARK  196  A    between atoms: _489  and  _490
REMARK  197  A    between atoms: _489  and  _492
REMARK  198  A    between atoms: _492  and  _493
REMARK  199  A    between atoms: _493  and  _494
REMARK  200  A    between atoms: _497  and  _499
REMARK  201  A    between atoms: _499  and  _500
REMARK  202  A    between atoms: _499  and  _502
REMARK  203  A    between atoms: _502  and  _503
REMARK  204  A    between atoms: _506  and  _508
REMARK  205  A    between atoms: _508  and  _509
REMARK  206  A    between atoms: _508  and  _511
REMARK  207  A    between atoms: _511  and  _512
REMARK  208  A    between atoms: _515  and  _517
REMARK  209  A    between atoms: _517  and  _518
REMARK  210  A    between atoms: _521  and  _523
REMARK  211  A    between atoms: _523  and  _524
REMARK  212  A    between atoms: _523  and  _526
REMARK  213  A    between atoms: _526  and  _527
REMARK  214  A    between atoms: _530  and  _532
REMARK  215  A    between atoms: _532  and  _533
REMARK  216  A    between atoms: _532  and  _535
REMARK  217  A    between atoms: _535  and  _536
REMARK  218  A    between atoms: _536  and  _537
REMARK  219  A    between atoms: _542  and  _544
REMARK  220  A    between atoms: _544  and  _545
REMARK  221  A    between atoms: _544  and  _547
REMARK  222  A    between atoms: _547  and  _548
REMARK  223  A    between atoms: _548  and  _549
REMARK  224  A    between atoms: _552  and  _554
REMARK  225  A    between atoms: _554  and  _555
REMARK  226  A    between atoms: _558  and  _560
REMARK  227  A    between atoms: _560  and  _561
REMARK  228  A    between atoms: _560  and  _563
REMARK  229  A    between atoms: _563  and  _564
REMARK  230  A    between atoms: _567  and  _569
REMARK  231  A    between atoms: _569  and  _570
REMARK  232  A    between atoms: _569  and  _572
REMARK  233  A    between atoms: _572  and  _573
REMARK  234  A    between atoms: _578  and  _580
REMARK  235  A    between atoms: _580  and  _581
REMARK  236  A    between atoms: _580  and  _583
REMARK  237  A    between atoms: _583  and  _584
REMARK  238  A    between atoms: _586  and  _588
REMARK  239  A    between atoms: _588  and  _589
REMARK  240  A    between atoms: _592  and  _594
REMARK  241  A    between atoms: _594  and  _595
REMARK  242  A    between atoms: _598  and  _600
REMARK  243  A    between atoms: _600  and  _601
REMARK  244  A    between atoms: _603  and  _605
REMARK  245  A    between atoms: _605  and  _606
REMARK  246  A    between atoms: _605  and  _608
REMARK  247  A    between atoms: _608  and  _609
REMARK  248  A    between atoms: _612  and  _614
REMARK  249  A    between atoms: _614  and  _615
REMARK  250  A    between atoms: _617  and  _619
REMARK  251  A    between atoms: _619  and  _620
REMARK  252  A    between atoms: _619  and  _622
REMARK  253  A    between atoms: _622  and  _623
REMARK  254  A    between atoms: _628  and  _630
REMARK  255  A    between atoms: _630  and  _631
REMARK  256  A    between atoms: _634  and  _636
REMARK  257  A    between atoms: _636  and  _637
REMARK  258  A    between atoms: _636  and  _639
REMARK  259  A    between atoms: _639  and  _640
REMARK  260  A    between atoms: _640  and  _641
REMARK  261  A    between atoms: _646  and  _648
REMARK  262  A    between atoms: _648  and  _649
REMARK  263  A    between atoms: _648  and  _651
REMARK  264  A    between atoms: _651  and  _652
REMARK  265  A    between atoms: _655  and  _657
REMARK  266  A    between atoms: _657  and  _658
REMARK  267  A    between atoms: _657  and  _660
REMARK  268  A    between atoms: _660  and  _661
REMARK                            x       y       z     vdW  Elec       q    Type
REMARK                         _______ _______ _______ _____ _____    ______ ____
ROOT
ATOM      1  CA  LEU A   4     101.983  43.532  92.737  0.00  0.00    +0.149 C 
ENDROOT
BRANCH   1   3
ATOM      2  C   GLY A   3     101.967  44.107  90.413  0.00  0.00    +0.243 C 
ATOM      3  N   LEU A   4     102.248  44.452  91.655  0.00  0.00    -0.297 N 
ATOM      4  H   LEU A   4     102.660  45.386  91.855  0.00  0.00    +0.150 HD
ATOM      5  O   GLY A   3     101.417  43.034  90.131  0.00  0.00    -0.273 OA
BRANCH   2   6
ATOM      6  CA  GLY A   3     102.352  45.130  89.336  0.00  0.00    +0.176 C 
BRANCH   6   9
ATOM      7  C   GLY A   2     104.696  44.665  88.656  0.00  0.00    +0.243 C 
ATOM      8  O   GLY A   2     105.159  45.148  89.698  0.00  0.00    -0.273 OA
ATOM      9  N   GLY A   3     103.379  44.598  88.400  0.00  0.00    -0.295 N 
ATOM     10  H   GLY A   3     103.065  44.157  87.512  0.00  0.00    +0.150 HD
BRANCH   7  11
ATOM     11  CA  GLY A   2     105.651  44.073  87.626  0.00  0.00    +0.176 C 
BRANCH  11  13
ATOM     12  C   ALA A   1     104.706  44.839  85.530  0.00  0.00    +0.238 C 
ATOM     13  N   GLY A   2     105.076  43.824  86.319  0.00  0.00    -0.296 N 
ATOM     14  H   GLY A   2     104.950  42.845  85.991  0.00  0.00    +0.150 HD
ATOM     15  O   ALA A   1     104.879  46.023  85.850  0.00  0.00    -0.274 OA
BRANCH  12  16
ATOM     16  CA  ALA A   1     104.063  44.463  84.194  0.00  0.00    +0.145 C 
ATOM     17  CB  ALA A   1     102.772  45.327  83.955  0.00  0.00    +0.028 C 
BRANCH  16  18
ATOM     18  N   ALA A   1     103.736  43.048  84.137  0.00  0.00    -0.238 NA
ATOM     19  H   ALA A   1     102.924  42.713  84.694  0.00  0.00    +0.142 HD
ENDBRANCH  16  18
ENDBRANCH  12  16
ENDBRANCH  11  13
ENDBRANCH   7  11
ENDBRANCH   6   9
ENDBRANCH   2   6
ENDBRANCH   1   3
BRANCH   1  20
ATOM     20  C   LEU A   4     100.477  43.472  93.001  0.00  0.00    +0.241 C 
ATOM     21  N   GLY A   5     100.039  42.324  93.538  0.00  0.00    -0.295 N 
ATOM     22  H   GLY A   5     100.740  41.644  93.895  0.00  0.00    +0.150 HD
ATOM     23  O   LEU A   4      99.738  44.426  92.677  0.00  0.00    -0.273 OA
BRANCH  21  24
ATOM     24  CA  GLY A   5      98.605  41.982  93.645  0.00  0.00    +0.176 C 
BRANCH  24  25
ATOM     25  C   GLY A   5      98.093  40.989  92.605  0.00  0.00    +0.243 C 
ATOM     26  O   GLY A   5      96.870  40.702  92.548  0.00  0.00    -0.273 OA
ATOM     27  N   PHE A   6      99.007  40.465  91.774  0.00  0.00    -0.298 N 
ATOM     28  H   PHE A   6      99.996  40.768  91.883  0.00  0.00    +0.150 HD
BRANCH  27  29
ATOM     29  CA  PHE A   6      98.696  39.484  90.713  0.00  0.00    +0.141 C 
BRANCH  29  30
ATOM     30  C   PHE A   6      98.648  38.030  91.195  0.00  0.00    +0.227 C 
ATOM     31  O   PHE A   6      97.642  37.325  90.929  0.00  0.00    -0.286 OA
ENDBRANCH  29  30
BRANCH  29  32
ATOM     32  CB  PHE A   6      99.711  39.571  89.551  0.00  0.00    +0.054 C 
BRANCH  32  33
ATOM     33  CG  PHE A   6      99.601  38.436  88.529  0.00  0.00    -0.020 A 
ATOM     34  CD2 PHE A   6     100.532  37.377  88.513  0.00  0.00    -0.004 A 
ATOM     35  CE2 PHE A   6     100.440  36.332  87.565  0.00  0.00    -0.000 A 
ATOM     36  CZ  PHE A   6      99.424  36.333  86.625  0.00  0.00    -0.000 A 
ATOM     37  CE1 PHE A   6      98.492  37.363  86.640  0.00  0.00    -0.000 A 
ATOM     38  CD1 PHE A   6      98.594  38.422  87.564  0.00  0.00    -0.004 A 
ENDBRANCH  32  33
ENDBRANCH  29  32
ENDBRANCH  27  29
ENDBRANCH  24  25
ENDBRANCH  21  24
ENDBRANCH   1  20
BRANCH   1  39
ATOM     39  CB  LEU A   4     102.798  43.925  93.967  0.00  0.00    +0.029 C 
BRANCH  39  40
ATOM     40  CG  LEU A   4     104.322  44.063  93.781  0.00  0.00    +0.002 C 
ATOM     41  CD2 LEU A   4     104.912  44.462  95.141  0.00  0.00    +0.000 C 
ATOM     42  CD1 LEU A   4     105.004  42.780  93.214  0.00  0.00    +0.000 C 
ENDBRANCH  39  40
ENDBRANCH   1  39
TORSDOF 16
REMARK  Name = ../refined-set-2016/3fzn/3fzn_pocket.pdb
REMARK  268 active torsions:
REMARK  status: ('A' for Active; 'I' for Inactive)
REMARK    1  A    between atoms: _1  and  _3
REMARK    2  A    between atoms: _3  and  _4
REMARK    3  A    between atoms: _6  and  _8
REMARK    4  A    between atoms: _8  and  _9
REMARK    5  A    between atoms: _8  and  _11
REMARK    6  A    between atoms: _11  and  _12
REMARK    7  A    between atoms: _17  and  _19
REMARK    8  A    between atoms: _19  and  _20
REMARK    9  A    between atoms: _19  and  _22
REMARK   10  A    between atoms: _22  and  _23
REMARK   11  A    between atoms: _25  and  _27
REMARK   12  A    between atoms: _27  and  _28
REMARK   13  A    between atoms: _27  and  _30
REMARK   14  A    between atoms: _30  and  _31
REMARK   15  A    between atoms: _36  and  _38
REMARK   16  A    between atoms: _38  and  _39
REMARK   17  A    between atoms: _38  and  _41
REMARK   18  A    between atoms: _41  and  _42
REMARK   19  A    between atoms: _42  and  _43
REMARK   20  A    between atoms: _49  and  _50
REMARK   21  A    between atoms: _55  and  _57
REMARK   22  A    between atoms: _57  and  _58
REMARK   23  A    between atoms: _57  and  _60
REMARK   24  A    between atoms: _60  and  _61
REMARK   25  A    between atoms: _66  and  _68
REMARK   26  A    between atoms: _68  and  _69
REMARK   27  A    between atoms: _68  and  _71
REMARK   28  A    between atoms: _71  and  _72
REMARK   29  A    between atoms: _72  and  _73
REMARK   30  A    between atoms: _76  and  _78
REMARK   31  A    between atoms: _78  and  _79
REMARK   32  A    between atoms: _78  and  _81
REMARK   33  A    between atoms: _81  and  _82
REMARK   34  A    between atoms: _84  and  _86
REMARK   35  A    between atoms: _86  and  _87
REMARK   36  A    between atoms: _86  and  _89
REMARK   37  A    between atoms: _89  and  _90
REMARK   38  A    between atoms: _93  and  _95
REMARK   39  A    between atoms: _95  and  _96
REMARK   40  A    between atoms: _95  and  _98
REMARK   41  A    between atoms: _98  and  _99
REMARK   42  A    between atoms: _101  and  _103
REMARK   43  A    between atoms: _103  and  _104
REMARK   44  A    between atoms: _103  and  _106
REMARK   45  A    between atoms: _106  and  _107
REMARK   46  A    between atoms: _110  and  _112
REMARK   47  A    between atoms: _112  and  _113
REMARK   48  A    between atoms: _112  and  _115
REMARK   49  A    between atoms: _115  and  _116
REMARK   50  A    between atoms: _119  and  _121
REMARK   51  A    between atoms: _121  and  _122
REMARK   52  A    between atoms: _121  and  _124
REMARK   53  A    between atoms: _124  and  _125
REMARK   54  A    between atoms: _131  and  _133
REMARK   55  A    between atoms: _133  and  _134
REMARK   56  A    between atoms: _133  and  _136
REMARK   57  A    between atoms: _138  and  _140
REMARK   58  A    between atoms: _140  and  _141
REMARK   59  A    between atoms: _144  and  _146
REMARK   60  A    between atoms: _146  and  _147
REMARK   61  A    between atoms: _149  and  _151
REMARK   62  A    between atoms: _151  and  _152
REMARK   63  A    between atoms: _154  and  _156
REMARK   64  A    between atoms: _156  and  _157
REMARK   65  A    between atoms: _156  and  _159
REMARK   66  A    between atoms: _159  and  _160
REMARK   67  A    between atoms: _163  and  _165
REMARK   68  A    between atoms: _165  and  _166
REMARK   69  A    between atoms: _168  and  _170
REMARK   70  A    between atoms: _170  and  _171
REMARK   71  A    between atoms: _170  and  _173
REMARK   72  A    between atoms: _173  and  _174
REMARK   73  A    between atoms: _180  and  _182
REMARK   74  A    between atoms: _182  and  _183
REMARK   75  A    between atoms: _182  and  _185
REMARK   76  A    between atoms: _188  and  _190
REMARK   77  A    between atoms: _190  and  _191
REMARK   78  A    between atoms: _190  and  _193
REMARK   79  A    between atoms: _193  and  _194
REMARK   80  A    between atoms: _197  and  _199
REMARK   81  A    between atoms: _199  and  _200
REMARK   82  A    between atoms: _202  and  _204
REMARK   83  A    between atoms: _204  and  _205
REMARK   84  A    between atoms: _204  and  _207
REMARK   85  A    between atoms: _207  and  _208
REMARK   86  A    between atoms: _208  and  _209
REMARK   87  A    between atoms: _209  and  MG_664
REMARK   88  A    between atoms: _211  and  _213
REMARK   89  A    between atoms: _213  and  _214
REMARK   90  A    between atoms: _216  and  _218
REMARK   91  A    between atoms: _218  and  _219
REMARK   92  A    between atoms: _218  and  _221
REMARK   93  A    between atoms: _221  and  _222
REMARK   94  A    between atoms: _224  and  _226
REMARK   95  A    between atoms: _226  and  _227
REMARK   96  A    between atoms: _230  and  _232
REMARK   97  A    between atoms: _232  and  _233
REMARK   98  A    between atoms: _232  and  _235
REMARK   99  A    between atoms: _235  and  _236
REMARK  100  A    between atoms: _241  and  _243
REMARK  101  A    between atoms: _243  and  _244
REMARK  102  A    between atoms: _243  and  _246
REMARK  103  A    between atoms: _246  and  _247
REMARK  104  A    between atoms: _252  and  _253
REMARK  105  A    between atoms: _255  and  _257
REMARK  106  A    between atoms: _257  and  _258
REMARK  107  A    between atoms: _257  and  _260
REMARK  108  A    between atoms: _260  and  _261
REMARK  109  A    between atoms: _264  and  _266
REMARK  110  A    between atoms: _266  and  _267
REMARK  111  A    between atoms: _266  and  _269
REMARK  112  A    between atoms: _269  and  _270
REMARK  113  A    between atoms: _270  and  _271
REMARK  114  A    between atoms: _273  and  _275
REMARK  115  A    between atoms: _275  and  _276
REMARK  116  A    between atoms: _275  and  _278
REMARK  117  A    between atoms: _278  and  _279
REMARK  118  A    between atoms: _284  and  _286
REMARK  119  A    between atoms: _286  and  _287
REMARK  120  A    between atoms: _286  and  _289
REMARK  121  A    between atoms: _289  and  _290
REMARK  122  A    between atoms: _290  and  _291
REMARK  123  A    between atoms: _290  and  _292
REMARK  124  A    between atoms: _291  and  MG_664
REMARK  125  A    between atoms: _295  and  _297
REMARK  126  A    between atoms: _297  and  _298
REMARK  127  A    between atoms: _300  and  _302
REMARK  128  A    between atoms: _302  and  _303
REMARK  129  A    between atoms: _302  and  _305
REMARK  130  A    between atoms: _305  and  _306
REMARK  131  A    between atoms: _309  and  _311
REMARK  132  A    between atoms: _311  and  _312
REMARK  133  A    between atoms: _311  and  _314
REMARK  134  A    between atoms: _314  and  _315
REMARK  135  A    between atoms: _320  and  _321
REMARK  136  A    between atoms: _323  and  _325
REMARK  137  A    between atoms: _325  and  _326
REMARK  138  A    between atoms: _328  and  _330
REMARK  139  A    between atoms: _330  and  _331
REMARK  140  A    between atoms: _334  and  _336
REMARK  141  A    between atoms: _336  and  _337
REMARK  142  A    between atoms: _336  and  _339
REMARK  143  A    between atoms: _339  and  _340
REMARK  144  A    between atoms: _343  and  _345
REMARK  145  A    between atoms: _345  and  _346
REMARK  146  A    between atoms: _345  and  _348
REMARK  147  A    between atoms: _348  and  _349
REMARK  148  A    between atoms: _349  and  _350
REMARK  149  A    between atoms: _350  and  _351
REMARK  150  A    between atoms: _360  and  _362
REMARK  151  A    between atoms: _362  and  _363
REMARK  152  A    between atoms: _362  and  _365
REMARK  153  A    between atoms: _365  and  _366
REMARK  154  A    between atoms: _376  and  _378
REMARK  155  A    between atoms: _378  and  _379
REMARK  156  A    between atoms: _378  and  _381
REMARK  157  A    between atoms: _381  and  _382
REMARK  158  A    between atoms: _388  and  _390
REMARK  159  A    between atoms: _390  and  _391
REMARK  160  A    between atoms: _394  and  _396
REMARK  161  A    between atoms: _396  and  _397
REMARK  162  A    between atoms: _399  and  _401
REMARK  163  A    between atoms: _401  and  _402
REMARK  164  A    between atoms: _401  and  _404
REMARK  165  A    between atoms: _404  and  _405
REMARK  166  A    between atoms: _408  and  _410
REMARK  167  A    between atoms: _410  and  _411
REMARK  168  A    between atoms: _410  and  _413
REMARK  169  A    between atoms: _416  and  _418
REMARK  170  A    between atoms: _418  and  _419
REMARK  171  A    between atoms: _418  and  _421
REMARK  172  A    between atoms: _421  and  _422
REMARK  173  A    between atoms: _428  and  _430
REMARK  174  A    between atoms: _430  and  _431
REMARK  175  A    between atoms: _430  and  _433
REMARK  176  A    between atoms: _433  and  _434
REMARK  177  A    between atoms: _437  and  _439
REMARK  178  A    between atoms: _439  and  _440
REMARK  179  A    between atoms: _439  and  _442
REMARK  180  A    between atoms: _445  and  _447
REMARK  181  A    between atoms: _447  and  _448
REMARK  182  A    between atoms: _447  and  _450
REMARK  183  A    between atoms: _450  and  _451
REMARK  184  A    between atoms: _457  and  _458
REMARK  185  A    between atoms: _463  and  _465
REMARK  186  A    between atoms: _465  and  _466
REMARK  187  A    between atoms: _468  and  _470
REMARK  188  A    between atoms: _470  and  _471
REMARK  189  A    between atoms: _470  and  _473
REMARK  190  A    between atoms: _473  and  _474
REMARK  191  A    between atoms: _476  and  _478
REMARK  192  A    between atoms: _478  and  _479
REMARK  193  A    between atoms: _478  and  _481
REMARK  194  A    between atoms: _481  and  _482
REMARK  195  A    between atoms: _487  and  _489
REMARK  196  A    between atoms: _489  and  _490
REMARK  197  A    between atoms: _489  and  _492
REMARK  198  A    between atoms: _492  and  _493
REMARK  199  A    between atoms: _493  and  _494
REMARK  200  A    between atoms: _497  and  _499
REMARK  201  A    between atoms: _499  and  _500
REMARK  202  A    between atoms: _499  and  _502
REMARK  203  A    between atoms: _502  and  _503
REMARK  204  A    between atoms: _506  and  _508
REMARK  205  A    between atoms: _508  and  _509
REMARK  206  A    between atoms: _508  and  _511
REMARK  207  A    between atoms: _511  and  _512
REMARK  208  A    between atoms: _515  and  _517
REMARK  209  A    between atoms: _517  and  _518
REMARK  210  A    between atoms: _521  and  _523
REMARK  211  A    between atoms: _523  and  _524
REMARK  212  A    between atoms: _523  and  _526
REMARK  213  A    between atoms: _526  and  _527
REMARK  214  A    between atoms: _530  and  _532
REMARK  215  A    between atoms: _532  and  _533
REMARK  216  A    between atoms: _532  and  _535
REMARK  217  A    between atoms: _535  and  _536
REMARK  218  A    between atoms: _536  and  _537
REMARK  219  A    between atoms: _542  and  _544
REMARK  220  A    between atoms: _544  and  _545
REMARK  221  A    between atoms: _544  and  _547
REMARK  222  A    between atoms: _547  and  _548
REMARK  223  A    between atoms: _548  and  _549
REMARK  224  A    between atoms: _552  and  _554
REMARK  225  A    between atoms: _554  and  _555
REMARK  226  A    between atoms: _558  and  _560
REMARK  227  A    between atoms: _560  and  _561
REMARK  228  A    between atoms: _560  and  _563
REMARK  229  A    between atoms: _563  and  _564
REMARK  230  A    between atoms: _567  and  _569
REMARK  231  A    between atoms: _569  and  _570
REMARK  232  A    between atoms: _569  and  _572
REMARK  233  A    between atoms: _572  and  _573
REMARK  234  A    between atoms: _578  and  _580
REMARK  235  A    between atoms: _580  and  _581
REMARK  236  A    between atoms: _580  and  _583
REMARK  237  A    between atoms: _583  and  _584
REMARK  238  A    between atoms: _586  and  _588
REMARK  239  A    between atoms: _588  and  _589
REMARK  240  A    between atoms: _592  and  _594
REMARK  241  A    between atoms: _594  and  _595
REMARK  242  A    between atoms: _598  and  _600
REMARK  243  A    between atoms: _600  and  _601
REMARK  244  A    between atoms: _603  and  _605
REMARK  245  A    between atoms: _605  and  _606
REMARK  246  A    between atoms: _605  and  _608
REMARK  247  A    between atoms: _608  and  _609
REMARK  248  A    between atoms: _612  and  _614
REMARK  249  A    between atoms: _614  and  _615
REMARK  250  A    between atoms: _617  and  _619
REMARK  251  A    between atoms: _619  and  _620
REMARK  252  A    between atoms: _619  and  _622
REMARK  253  A    between atoms: _622  and  _623
REMARK  254  A    between atoms: _628  and  _630
REMARK  255  A    between atoms: _630  and  _631
REMARK  256  A    between atoms: _634  and  _636
REMARK  257  A    between atoms: _636  and  _637
REMARK  258  A    between atoms: _636  and  _639
REMARK  259  A    between atoms: _639  and  _640
REMARK  260  A    between atoms: _640  and  _641
REMARK  261  A    between atoms: _646  and  _648
REMARK  262  A    between atoms: _648  and  _649
REMARK  263  A    between atoms: _648  and  _651
REMARK  264  A    between atoms: _651  and  _652
REMARK  265  A    between atoms: _655  and  _657
REMARK  266  A    between atoms: _657  and  _658
REMARK  267  A    between atoms: _657  and  _660
REMARK  268  A    between atoms: _660  and  _661
REMARK                            x       y       z     vdW  Elec       q    Type
REMARK                         _______ _______ _______ _____ _____    ______ ____
ROOT
ATOM      1  C   UNK A   4     111.121  38.447 105.865  0.00  0.00    +0.000 C 
ENDROOT
BRANCH   1   2
ATOM      2  N   UNK A   4     109.834  37.848 105.476  0.00  0.00    +0.000 N 
ATOM      3  C   ASN A   3     109.249  36.863 106.152  0.00  0.00    +0.000 C 
ATOM      4  O   ASN A   3     109.789  36.277 107.121  0.00  0.00    +0.000 OA
ATOM      5  H   UNK A   4     109.357  38.214 104.628  0.00  0.00    +0.000 HD
BRANCH   3   6
ATOM      6  CA  ASN A   3     107.852  36.448 105.664  0.00  0.00    +0.000 C 
BRANCH   6   7
ATOM      7  N   ASN A   3     107.871  35.306 104.727  0.00  0.00    +0.000 N 
ATOM      8  H   ASN A   3     107.871  34.334 105.097  0.00  0.00    +0.000 HD
ATOM      9  C   MET A   2     107.888  35.515 103.400  0.00  0.00    +0.000 C 
ATOM     10  O   MET A   2     108.022  36.636 102.921  0.00  0.00    +0.000 OA
BRANCH   9  11
ATOM     11  CA  MET A   2     107.750  34.284 102.479  0.00  0.00    +0.000 C 
BRANCH  11  12
ATOM     12  N   MET A   2     106.351  34.118 102.097  0.00  0.00    +0.000 N 
ATOM     13  C   ILE A   1     105.516  33.396 102.828  0.00  0.00    +0.000 C 
ATOM     14  O   ILE A   1     105.879  32.812 103.865  0.00  0.00    +0.000 OA
ATOM     15  H   MET A   2     106.002  34.577 101.231  0.00  0.00    +0.000 HD
BRANCH  13  16
ATOM     16  CA  ILE A   1     104.049  33.326 102.319  0.00  0.00    +0.000 C 
BRANCH  16  17
ATOM     17  N   ILE A   1     103.631  31.958 102.039  0.00  0.00    +0.000 NA
ATOM     18  H   ILE A   1     103.126  31.414 102.768  0.00  0.00    +0.000 HD
ENDBRANCH  16  17
BRANCH  16  19
ATOM     19  CB  ILE A   1     103.091  34.063 103.325  0.00  0.00    +0.000 C 
ATOM     20  CG2 ILE A   1     103.522  35.532 103.477  0.00  0.00    +0.000 C 
BRANCH  19  21
ATOM     21  CG1 ILE A   1     101.624  33.890 102.930  0.00  0.00    +0.000 C 
ATOM     22  CD1 ILE A   1     101.261  34.380 101.511  0.00  0.00    +0.000 C 
ENDBRANCH  19  21
ENDBRANCH  16  19
ENDBRANCH  13  16
ENDBRANCH  11  12
BRANCH  11  23
ATOM     23  CB  MET A   2     108.642  34.404 101.219  0.00  0.00    +0.000 C 
BRANCH  23  24
ATOM     24  CG  MET A   2     108.479  33.257 100.196  0.00  0.00    +0.000 C 
BRANCH  24  25
ATOM     25  SD  MET A   2     109.320  31.734 100.704  0.00  0.00    +0.000 S 
ATOM     26  CE  MET A   2     110.991  32.086 100.131  0.00  0.00    +0.000 C 
ENDBRANCH  24  25
ENDBRANCH  23  24
ENDBRANCH  11  23
ENDBRANCH   9  11
ENDBRANCH   6   7
BRANCH   6  27
ATOM     27  CB  ASN A   3     106.896  36.204 106.854  0.00  0.00    +0.000 C 
BRANCH  27  28
ATOM     28  CG  ASN A   3     106.663  37.460 107.676  0.00  0.00    +0.000 C 
ATOM     29  ND2 ASN A   3     105.718  37.400 108.636  0.00  0.00    +0.000 N 
ATOM     30 HD21 ASN A   3     105.528  38.231 109.231  0.00  0.00    +0.000 HD
ATOM     31 HD22 ASN A   3     105.179  36.522 108.781  0.00  0.00    +0.000 HD
ATOM     32  OD1 ASN A   3     107.328  38.473 107.464  0.00  0.00    +0.000 OA
ENDBRANCH  27  28
ENDBRANCH   6  27
ENDBRANCH   3   6
ENDBRANCH   1   2
BRANCH   1  33
ATOM     33  C   UNK A   4     110.958  39.821 106.567  0.00  0.00    +0.000 C 
ATOM     34  O   UNK A   4     111.954  40.490 106.888  0.00  0.00    +0.000 OA
ATOM     35  N   GLY A   5     109.712  40.255 106.766  0.00  0.00    +0.000 N 
ATOM     36  H   GLY A   5     108.921  39.682 106.409  0.00  0.00    +0.000 HD
BRANCH  35  37
ATOM     37  CA  GLY A   5     109.413  41.505 107.466  0.00  0.00    +0.000 C 
BRANCH  37  38
ATOM     38  C   GLY A   5     109.601  42.820 106.697  0.00  0.00    +0.000 C 
ATOM     39  O   GLY A   5     109.438  43.928 107.281  0.00  0.00    +0.000 OA
ATOM     40  N   SER A   6     109.877  42.737 105.394  0.00  0.00    +0.000 N 
ATOM     41  H   SER A   6     109.761  41.830 104.898  0.00  0.00    +0.000 HD
BRANCH  40  42
ATOM     42  CA  SER A   6     110.342  43.916 104.659  0.00  0.00    +0.000 C 
BRANCH  42  43
ATOM     43  C   SER A   6     110.035  43.827 103.186  0.00  0.00    +0.000 C 
ATOM     44  O   SER A   6     109.737  42.746 102.675  0.00  0.00    +0.000 OA
ATOM     45  N   ALA A   7     110.113  44.980 102.520  0.00  0.00    +0.000 N 
ATOM     46  H   ALA A   7     110.189  45.864 103.062  0.00  0.00    +0.000 HD
BRANCH  45  47
ATOM     47  CA  ALA A   7     110.096  45.053 101.070  0.00  0.00    +0.000 C 
BRANCH  47  48
ATOM     48  C   ALA A   7     111.562  44.790 100.596  0.00  0.00    +0.000 C 
ATOM     49  N   ASN A   8     111.961  43.515 100.585  0.00  0.00    +0.000 N 
ATOM     50  H   ASN A   8     111.249  42.767 100.707  0.00  0.00    +0.000 HD
ATOM     51  O   ALA A   7     112.324  45.722 100.291  0.00  0.00    +0.000 OA
BRANCH  49  52
ATOM     52  CA  ASN A   8     113.383  43.125 100.405  0.00  0.00    +0.000 C 
BRANCH  52  53
ATOM     53  C   ASN A   8     114.066  43.619  99.129  0.00  0.00    +0.000 C 
ATOM     54  O   ASN A   8     115.234  44.114  99.156  0.00  0.00    +0.000 OA
ATOM     55  N   TYR A   9     113.346  43.471  98.018  0.00  0.00    +0.000 N 
ATOM     56  H   TYR A   9     112.400  43.046  98.092  0.00  0.00    +0.000 HD
BRANCH  55  57
ATOM     57  CA  TYR A   9     113.833  43.885  96.684  0.00  0.00    +0.000 C 
ATOM     58  CB  TYR A   9     112.843  43.515  95.588  0.00  0.00    +0.000 C 
BRANCH  57  59
ATOM     59  C   TYR A   9     114.122  45.361  96.638  0.00  0.00    +0.000 C 
ATOM     60  N   LEU A  10     113.294  46.147  97.337  0.00  0.00    +0.000 N 
ATOM     61  H   LEU A  10     112.487  45.711  97.828  0.00  0.00    +0.000 HD
ATOM     62  O   TYR A   9     115.053  45.778  95.930  0.00  0.00    +0.000 OA
BRANCH  60  63
ATOM     63  CA  LEU A  10     113.478  47.587  97.437  0.00  0.00    +0.000 C 
BRANCH  63  64
ATOM     64  C   LEU A  10     114.717  47.978  98.243  0.00  0.00    +0.000 C 
ATOM     65  N   ARG A  11     114.911  47.331  99.386  0.00  0.00    +0.000 N 
ATOM     66  H   ARG A  11     114.179  46.677  99.730  0.00  0.00    +0.000 HD
ATOM     67  O   LEU A  10     115.484  48.865  97.843  0.00  0.00    +0.000 OA
BRANCH  65  68
ATOM     68  CA  ARG A  11     116.121  47.516 100.167  0.00  0.00    +0.000 C 
BRANCH  68  69
ATOM     69  C   ARG A  11     117.366  47.213  99.328  0.00  0.00    +0.000 C 
ATOM     70  O   ARG A  11     118.336  47.966  99.372  0.00  0.00    +0.000 OA
ATOM     71  N   TRP A  12     117.328  46.134  98.549  0.00  0.00    +0.000 N 
ATOM     72  H   TRP A  12     116.481  45.531  98.549  0.00  0.00    +0.000 HD
BRANCH  71  73
ATOM     73  CA  TRP A  12     118.461  45.787  97.695  0.00  0.00    +0.000 C 
BRANCH  73  74
ATOM     74  C   TRP A  12     118.727  46.868  96.645  0.00  0.00    +0.000 C 
ATOM     75  O   TRP A  12     119.875  47.259  96.434  0.00  0.00    +0.000 OA
ATOM     76  N   PHE A  13     117.672  47.353  95.992  0.00  0.00    +0.000 N 
ATOM     77  H   PHE A  13     116.733  46.953  96.191  0.00  0.00    +0.000 HD
BRANCH  76  78
ATOM     78  CA  PHE A  13     117.786  48.429  95.003  0.00  0.00    +0.000 C 
BRANCH  78  79
ATOM     79  C   PHE A  13     118.387  49.698  95.637  0.00  0.00    +0.000 C 
ATOM     80  N   ALA A  14     117.901  50.061  96.822  0.00  0.00    +0.000 N 
ATOM     81  H   ALA A  14     117.178  49.469  97.279  0.00  0.00    +0.000 HD
ATOM     82  O   PHE A  13     119.270  50.337  95.058  0.00  0.00    +0.000 OA
BRANCH  80  83
ATOM     83  CA  ALA A  14     118.363  51.279  97.498  0.00  0.00    +0.000 C 
ATOM     84  CB  ALA A  14     117.582  51.528  98.771  0.00  0.00    +0.000 C 
BRANCH  83  85
ATOM     85  C   ALA A  14     119.862  51.180  97.807  0.00  0.00    +0.000 C 
ATOM     86  O   ALA A  14     120.599  52.148  97.611  0.00  0.00    +0.000 OA
ENDBRANCH  83  85
ENDBRANCH  80  83
ENDBRANCH  78  79
BRANCH  78  87
ATOM     87  CB  PHE A  13     116.401  48.756  94.425  0.00  0.00    +0.000 C 
BRANCH  87  88
ATOM     88  CG  PHE A  13     116.372  48.914  92.932  0.00  0.00    +0.000 A 
ATOM     89  CD2 PHE A  13     116.634  50.145  92.342  0.00  0.00    +0.000 A 
ATOM     90  CE2 PHE A  13     116.587  50.293  90.959  0.00  0.00    +0.000 A 
ATOM     91  CZ  PHE A  13     116.263  49.199  90.146  0.00  0.00    +0.000 A 
ATOM     92  CE1 PHE A  13     115.984  47.968  90.722  0.00  0.00    +0.000 A 
ATOM     93  CD1 PHE A  13     116.041  47.830  92.114  0.00  0.00    +0.000 A 
ENDBRANCH  87  88
ENDBRANCH  78  87
ENDBRANCH  76  78
ENDBRANCH  73  74
BRANCH  73  94
ATOM     94  CB  TRP A  12     118.256  44.437  97.006  0.00  0.00    +0.000 C 
BRANCH  94  95
ATOM     95  CG  TRP A  12     119.489  43.986  96.298  0.00  0.00    +0.000 A 
ATOM     96  CD2 TRP A  12     120.599  43.295  96.877  0.00  0.00    +0.000 A 
ATOM     97  CE3 TRP A  12     120.879  42.814  98.162  0.00  0.00    +0.000 A 
ATOM     98  CZ3 TRP A  12     122.082  42.155  98.380  0.00  0.00    +0.000 A 
ATOM     99  CH2 TRP A  12     123.007  41.971  97.338  0.00  0.00    +0.000 A 
ATOM    100  CZ2 TRP A  12     122.758  42.427  96.069  0.00  0.00    +0.000 A 
ATOM    101  CE2 TRP A  12     121.546  43.090  95.849  0.00  0.00    +0.000 A 
ATOM    102  NE1 TRP A  12     121.038  43.648  94.704  0.00  0.00    +0.000 N 
ATOM    103  HE1 TRP A  12     121.508  43.661  93.776  0.00  0.00    +0.000 HD
ATOM    104  CD1 TRP A  12     119.804  44.188  94.986  0.00  0.00    +0.000 A 
ENDBRANCH  94  95
ENDBRANCH  73  94
ENDBRANCH  71  73
ENDBRANCH  68  69
BRANCH  68 105
ATOM    105  CB  ARG A  11     116.114  46.629 101.413  0.00  0.00    +0.000 C 
BRANCH 105 106
ATOM    106  CG  ARG A  11     115.308  47.187 102.546  0.00  0.00    +0.000 C 
BRANCH 106 107
ATOM    107  CD  ARG A  11     115.513  46.378 103.819  0.00  0.00    +0.000 C 
BRANCH 107 108
ATOM    108  NE  ARG A  11     115.118  47.127 105.000  0.00  0.00    +0.330 N 
ATOM    109  CZ  ARG A  11     115.826  48.117 105.537  0.00  0.00    +0.000 C 
ATOM    110  NH2 ARG A  11     115.371  48.730 106.619  0.00  0.00    +0.330 N 
ATOM    111 HH21 ARG A  11     115.917  49.505 107.046  0.00  0.00    +0.000 HD
ATOM    112 HH22 ARG A  11     114.467  48.436 107.042  0.00  0.00    +0.000 HD
ATOM    113  NH1 ARG A  11     116.987  48.501 105.010  0.00  0.00    +0.330 N 
ATOM    114 HH11 ARG A  11     117.524  49.277 105.446  0.00  0.00    +0.000 HD
ATOM    115 HH12 ARG A  11     117.356  48.025 104.163  0.00  0.00    +0.000 HD
ATOM    116  HE  ARG A  11     114.219  46.871 105.457  0.00  0.00    +0.000 HD
ENDBRANCH 107 108
ENDBRANCH 106 107
ENDBRANCH 105 106
ENDBRANCH  68 105
ENDBRANCH  65  68
ENDBRANCH  63  64
BRANCH  63 117
ATOM    117  CB  LEU A  10     112.220  48.290  97.993  0.00  0.00    +0.000 C 
BRANCH 117 118
ATOM    118  CG  LEU A  10     111.188  48.826  97.014  0.00  0.00    +0.000 C 
ATOM    119  CD2 LEU A  10     110.084  49.590  97.780  0.00  0.00    +0.000 C 
ATOM    120  CD1 LEU A  10     111.859  49.751  95.994  0.00  0.00    +0.000 C 
ENDBRANCH 117 118
ENDBRANCH  63 117
ENDBRANCH  60  63
ENDBRANCH  57  59
ENDBRANCH  55  57
ENDBRANCH  52  53
ENDBRANCH  49  52
ENDBRANCH  47  48
BRANCH  47 121
ATOM    121  CB  ALA A   7     109.605  46.438 100.631  0.00  0.00    +0.000 C 
BRANCH 121 122
ATOM    122  CG  ALA A   7     108.117  46.760 100.805  0.00  0.00    +0.000 A 
ATOM    123  CD2 ALA A   7     107.710  48.059 101.190  0.00  0.00    +0.000 A 
ATOM    124  CE2 ALA A   7     106.358  48.410 101.314  0.00  0.00    +0.000 A 
ATOM    125  CZ  ALA A   7     105.375  47.473 101.066  0.00  0.00    +0.000 A 
ATOM    126  CE1 ALA A   7     105.738  46.170 100.648  0.00  0.00    +0.000 A 
ATOM    127  CD1 ALA A   7     107.118  45.825 100.537  0.00  0.00    +0.000 A 
BRANCH 125 128
ATOM    128  OH  ALA A   7     104.029  47.853 101.151  0.00  0.00    +0.000 OA
ATOM    129  HH  ALA A   7     103.454  47.074 100.947  0.00  0.00    +0.000 HD
ENDBRANCH 125 128
ENDBRANCH 121 122
ENDBRANCH  47 121
ENDBRANCH  45  47
ENDBRANCH  42  43
BRANCH  42 130
ATOM    130  CB  SER A   6     111.896  44.100 104.834  0.00  0.00    +0.000 C 
ATOM    131  CG2 SER A   6     112.680  42.932 104.257  0.00  0.00    +0.000 C 
BRANCH 130 132
ATOM    132  OG1 SER A   6     112.348  45.334 104.240  0.00  0.00    +0.000 OA
ATOM    133  HG1 SER A   6     111.889  46.096 104.675  0.00  0.00    +0.000 HD
ENDBRANCH 130 132
ENDBRANCH  42 130
ENDBRANCH  40  42
ENDBRANCH  37  38
ENDBRANCH  35  37
ENDBRANCH   1  33
BRANCH   1 134
ATOM    134  C   UNK A   4     112.130  38.519 104.692  0.00  0.00    +0.000 C 
BRANCH 134 135
ATOM    135  C   UNK A   4     111.639  39.348 103.504  0.00  0.00    +0.000 C 
BRANCH 135 136
ATOM    136  N   UNK A   4     112.349  39.230 102.380  0.00  0.00    +0.000 NA
ATOM    137  H   UNK A   4     113.178  38.602 102.352  0.00  0.00    +0.000 HD
ATOM    138  H   UNK A   4     112.074  39.766 101.532  0.00  0.00    +0.000 HD
ENDBRANCH 135 136
BRANCH 135 139
ATOM    139  O   UNK A   4     110.650  40.076 103.594  0.00  0.00    +0.000 OA
BRANCH 139 140
ATOM    140 MG   UNK A   4     109.316  40.686 102.064  0.00  0.00    +0.000 Mg
BRANCH 140 141
ATOM    141  O   UNK A   4     107.691  40.153 103.360  0.00  0.00    +0.000 OA
BRANCH 141 142
ATOM    142  C   UNK A   4     106.916  40.198 104.346  0.00  0.00    +0.000 C 
ATOM    143  O   UNK A   4     107.210  40.834 105.385  0.00  0.00    +0.000 OA
BRANCH 142 144
ATOM    144  C   UNK A   4     105.565  39.433 104.319  0.00  0.00    +0.000 C 
BRANCH 144 145
ATOM    145  C   UNK A   4     104.893  39.368 102.906  0.00  0.00    +0.000 C 
BRANCH 145 146
ATOM    146  C   UNK A   4     104.346  40.731 102.462  0.00  0.00    +0.000 C 
ATOM    147  O   UNK A   4     103.203  41.069 102.739  0.00  0.00    +0.000 OA
ATOM    148  N   GLY A   5     105.142  41.525 101.765  0.00  0.00    +0.000 N 
ATOM    149  H   GLY A   5     106.123  41.246 101.563  0.00  0.00    +0.000 HD
BRANCH 148 150
ATOM    150  CA  GLY A   5     104.613  42.812 101.280  0.00  0.00    +0.000 C 
BRANCH 150 151
ATOM    151  C   GLY A   5     103.579  42.628 100.178  0.00  0.00    +0.000 C 
ATOM    152  O   GLY A   5     102.481  43.225 100.207  0.00  0.00    +0.000 OA
ATOM    153  N   SER A   6     103.915  41.769  99.201  0.00  0.00    +0.000 N 
ATOM    154  H   SER A   6     104.816  41.256  99.285  0.00  0.00    +0.000 HD
BRANCH 153 155
ATOM    155  CA  SER A   6     103.076  41.515  98.017  0.00  0.00    +0.000 C 
BRANCH 155 156
ATOM    156  C   SER A   6     101.706  40.906  98.379  0.00  0.00    +0.000 C 
ATOM    157  N   ALA A   7     101.665  40.152  99.471  0.00  0.00    +0.000 N 
ATOM    158  H   ALA A   7     102.524  40.036 100.045  0.00  0.00    +0.000 HD
ATOM    159  O   SER A   6     100.695  41.130  97.712  0.00  0.00    +0.000 OA
BRANCH 157 160
ATOM    160  CA  ALA A   7     100.426  39.479  99.881  0.00  0.00    +0.000 C 
ATOM    161  CB  ALA A   7     100.735  38.671 101.132  0.00  0.00    +0.000 C 
BRANCH 160 162
ATOM    162  C   ALA A   7      99.253  40.444 100.175  0.00  0.00    +0.000 C 
ATOM    163  N   ASN A   8      99.557  41.672 100.631  0.00  0.00    +0.000 N 
ATOM    164  H   ASN A   8     100.550  41.981 100.660  0.00  0.00    +0.000 HD
ATOM    165  O   ALA A   7      98.059  40.059 100.068  0.00  0.00    +0.000 OA
BRANCH 163 166
ATOM    166  CA  ASN A   8      98.504  42.573 101.085  0.00  0.00    +0.000 C 
BRANCH 166 167
ATOM    167  C   ASN A   8      97.739  43.253  99.949  0.00  0.00    +0.000 C 
ATOM    168  O   ASN A   8      96.593  43.649 100.147  0.00  0.00    +0.000 OA
ATOM    169  N   TYR A   9      98.363  43.413  98.776  0.00  0.00    +0.000 N 
ATOM    170  H   TYR A   9      99.294  42.980  98.610  0.00  0.00    +0.000 HD
BRANCH 169 171
ATOM    171  CA  TYR A   9      97.713  44.210  97.726  0.00  0.00    +0.000 C 
BRANCH 171 172
ATOM    172  C   TYR A   9      96.315  43.639  97.352  0.00  0.00    +0.000 C 
ATOM    173  O   TYR A   9      95.315  44.415  97.214  0.00  0.00    +0.000 OA
ENDBRANCH 171 172
BRANCH 171 174
ATOM    174  CB  TYR A   9      98.626  44.372  96.497  0.00  0.00    +0.000 C 
BRANCH 174 175
ATOM    175  CG  TYR A   9      99.869  45.203  96.742  0.00  0.00    +0.000 A 
ATOM    176  CD2 TYR A   9     101.026  44.634  97.300  0.00  0.00    +0.000 A 
ATOM    177  CE2 TYR A   9     102.200  45.417  97.528  0.00  0.00    +0.000 A 
ATOM    178  CZ  TYR A   9     102.201  46.763  97.243  0.00  0.00    +0.000 A 
ATOM    179  CE1 TYR A   9     101.074  47.335  96.665  0.00  0.00    +0.000 A 
ATOM    180  CD1 TYR A   9      99.920  46.560  96.431  0.00  0.00    +0.000 A 
BRANCH 178 181
ATOM    181  OH  TYR A   9     103.350  47.518  97.482  0.00  0.00    +0.000 OA
ATOM    182  HH  TYR A   9     103.131  48.265  98.094  0.00  0.00    +0.000 HD
ENDBRANCH 178 181
ENDBRANCH 174 175
ENDBRANCH 171 174
ENDBRANCH 169 171
ENDBRANCH 166 167
BRANCH 166 183
ATOM    183  CB  ASN A   8      99.079  43.642 102.014  0.00  0.00    +0.000 C 
BRANCH 183 184
ATOM    184  CG  ASN A   8      99.823  43.048 103.168  0.00  0.00    +0.000 C 
ATOM    185  OD1 ASN A   8      99.217  42.462 104.088  0.00  0.00    +0.000 OA
ATOM    186  ND2 ASN A   8     101.156  43.149 103.116  0.00  0.00    +0.000 N 
ATOM    187 HD21 ASN A   8     101.739  42.727 103.867  0.00  0.00    +0.000 HD
ATOM    188 HD22 ASN A   8     101.609  43.649 102.325  0.00  0.00    +0.000 HD
ENDBRANCH 183 184
ENDBRANCH 166 183
ENDBRANCH 163 166
ENDBRANCH 160 162
ENDBRANCH 157 160
ENDBRANCH 155 156
BRANCH 155 189
ATOM    189  CB  SER A   6     103.808  40.560  97.060  0.00  0.00    +0.000 C 
BRANCH 189 190
ATOM    190  OG  SER A   6     104.927  41.219  96.447  0.00  0.00    +0.000 OA
ATOM    191  H   SER A   6     105.558  41.517  97.149  0.00  0.00    +0.000 HD
ENDBRANCH 189 190
ENDBRANCH 155 189
ENDBRANCH 153 155
ENDBRANCH 150 151
ENDBRANCH 148 150
ENDBRANCH 145 146
BRANCH 145 193
ATOM    192  C   ASN A   3     105.284  38.432 100.674  0.00  0.00    +0.000 C 
ATOM    193  N   UNK A   4     105.756  38.742 101.882  0.00  0.00    +0.000 N 
ATOM    194  H   UNK A   4     106.751  38.539 102.108  0.00  0.00    +0.000 HD
ATOM    195  O   ASN A   3     104.088  38.622 100.350  0.00  0.00    +0.000 OA
BRANCH 192 196
ATOM    196  CA  ASN A   3     106.284  37.790  99.712  0.00  0.00    +0.000 C 
BRANCH 196 199
ATOM    197  C   MET A   2     105.075  35.892  98.820  0.00  0.00    +0.000 C 
ATOM    198  O   MET A   2     105.060  35.373  99.936  0.00  0.00    +0.000 OA
ATOM    199  N   ASN A   3     105.697  37.045  98.603  0.00  0.00    +0.000 N 
ATOM    200  H   ASN A   3     105.766  37.420  97.635  0.00  0.00    +0.000 HD
BRANCH 197 201
ATOM    201  CA  MET A   2     104.403  35.220  97.615  0.00  0.00    +0.000 C 
BRANCH 201 203
ATOM    202  C   ILE A   1     105.212  33.182  96.446  0.00  0.00    +0.000 C 
ATOM    203  N   MET A   2     104.788  33.793  97.553  0.00  0.00    +0.000 N 
ATOM    204  H   MET A   2     104.724  33.232  98.426  0.00  0.00    +0.000 HD
ATOM    205  O   ILE A   1     105.547  33.797  95.422  0.00  0.00    +0.000 OA
BRANCH 202 206
ATOM    206  CA  ILE A   1     105.198  31.646  96.468  0.00  0.00    +0.000 C 
BRANCH 206 207
ATOM    207  CB  ILE A   1     106.567  31.085  96.074  0.00  0.00    +0.000 C 
ATOM    208  CG2 ILE A   1     107.632  31.538  97.051  0.00  0.00    +0.000 C 
ATOM    209  CG1 ILE A   1     106.503  29.532  95.942  0.00  0.00    +0.000 C 
ENDBRANCH 206 207
BRANCH 206 210
ATOM    210  N   ILE A   1     104.150  31.179  95.563  0.00  0.00    +0.000 NA
ATOM    211  H   ILE A   1     104.342  31.182  94.541  0.00  0.00    +0.000 HD
ENDBRANCH 206 210
ENDBRANCH 202 206
ENDBRANCH 201 203
BRANCH 201 212
ATOM    212  CB  MET A   2     102.839  35.379  97.724  0.00  0.00    +0.000 C 
ATOM    213  CG2 MET A   2     102.410  36.886  97.930  0.00  0.00    +0.000 C 
BRANCH 212 214
ATOM    214  CG1 MET A   2     102.110  34.742  96.526  0.00  0.00    +0.000 C 
ATOM    215  CD1 MET A   2     100.628  34.479  96.771  0.00  0.00    +0.000 C 
ENDBRANCH 212 214
ENDBRANCH 201 212
ENDBRANCH 197 201
ENDBRANCH 196 199
ENDBRANCH 192 196
ENDBRANCH 145 193
ENDBRANCH 144 145
ENDBRANCH 142 144
ENDBRANCH 141 142
ENDBRANCH 140 141
ENDBRANCH 139 140
ENDBRANCH 135 139
ENDBRANCH 134 135
ENDBRANCH   1 134
TORSDOF 87
REMARK  Name = ../refined-set-2016/3fzn/3fzn_pocket.pdb
REMARK  268 active torsions:
REMARK  status: ('A' for Active; 'I' for Inactive)
REMARK    1  A    between atoms: _1  and  _3
REMARK    2  A    between atoms: _3  and  _4
REMARK    3  A    between atoms: _6  and  _8
REMARK    4  A    between atoms: _8  and  _9
REMARK    5  A    between atoms: _8  and  _11
REMARK    6  A    between atoms: _11  and  _12
REMARK    7  A    between atoms: _17  and  _19
REMARK    8  A    between atoms: _19  and  _20
REMARK    9  A    between atoms: _19  and  _22
REMARK   10  A    between atoms: _22  and  _23
REMARK   11  A    between atoms: _25  and  _27
REMARK   12  A    between atoms: _27  and  _28
REMARK   13  A    between atoms: _27  and  _30
REMARK   14  A    between atoms: _30  and  _31
REMARK   15  A    between atoms: _36  and  _38
REMARK   16  A    between atoms: _38  and  _39
REMARK   17  A    between atoms: _38  and  _41
REMARK   18  A    between atoms: _41  and  _42
REMARK   19  A    between atoms: _42  and  _43
REMARK   20  A    between atoms: _49  and  _50
REMARK   21  A    between atoms: _55  and  _57
REMARK   22  A    between atoms: _57  and  _58
REMARK   23  A    between atoms: _57  and  _60
REMARK   24  A    between atoms: _60  and  _61
REMARK   25  A    between atoms: _66  and  _68
REMARK   26  A    between atoms: _68  and  _69
REMARK   27  A    between atoms: _68  and  _71
REMARK   28  A    between atoms: _71  and  _72
REMARK   29  A    between atoms: _72  and  _73
REMARK   30  A    between atoms: _76  and  _78
REMARK   31  A    between atoms: _78  and  _79
REMARK   32  A    between atoms: _78  and  _81
REMARK   33  A    between atoms: _81  and  _82
REMARK   34  A    between atoms: _84  and  _86
REMARK   35  A    between atoms: _86  and  _87
REMARK   36  A    between atoms: _86  and  _89
REMARK   37  A    between atoms: _89  and  _90
REMARK   38  A    between atoms: _93  and  _95
REMARK   39  A    between atoms: _95  and  _96
REMARK   40  A    between atoms: _95  and  _98
REMARK   41  A    between atoms: _98  and  _99
REMARK   42  A    between atoms: _101  and  _103
REMARK   43  A    between atoms: _103  and  _104
REMARK   44  A    between atoms: _103  and  _106
REMARK   45  A    between atoms: _106  and  _107
REMARK   46  A    between atoms: _110  and  _112
REMARK   47  A    between atoms: _112  and  _113
REMARK   48  A    between atoms: _112  and  _115
REMARK   49  A    between atoms: _115  and  _116
REMARK   50  A    between atoms: _119  and  _121
REMARK   51  A    between atoms: _121  and  _122
REMARK   52  A    between atoms: _121  and  _124
REMARK   53  A    between atoms: _124  and  _125
REMARK   54  A    between atoms: _131  and  _133
REMARK   55  A    between atoms: _133  and  _134
REMARK   56  A    between atoms: _133  and  _136
REMARK   57  A    between atoms: _138  and  _140
REMARK   58  A    between atoms: _140  and  _141
REMARK   59  A    between atoms: _144  and  _146
REMARK   60  A    between atoms: _146  and  _147
REMARK   61  A    between atoms: _149  and  _151
REMARK   62  A    between atoms: _151  and  _152
REMARK   63  A    between atoms: _154  and  _156
REMARK   64  A    between atoms: _156  and  _157
REMARK   65  A    between atoms: _156  and  _159
REMARK   66  A    between atoms: _159  and  _160
REMARK   67  A    between atoms: _163  and  _165
REMARK   68  A    between atoms: _165  and  _166
REMARK   69  A    between atoms: _168  and  _170
REMARK   70  A    between atoms: _170  and  _171
REMARK   71  A    between atoms: _170  and  _173
REMARK   72  A    between atoms: _173  and  _174
REMARK   73  A    between atoms: _180  and  _182
REMARK   74  A    between atoms: _182  and  _183
REMARK   75  A    between atoms: _182  and  _185
REMARK   76  A    between atoms: _188  and  _190
REMARK   77  A    between atoms: _190  and  _191
REMARK   78  A    between atoms: _190  and  _193
REMARK   79  A    between atoms: _193  and  _194
REMARK   80  A    between atoms: _197  and  _199
REMARK   81  A    between atoms: _199  and  _200
REMARK   82  A    between atoms: _202  and  _204
REMARK   83  A    between atoms: _204  and  _205
REMARK   84  A    between atoms: _204  and  _207
REMARK   85  A    between atoms: _207  and  _208
REMARK   86  A    between atoms: _208  and  _209
REMARK   87  A    between atoms: _209  and  MG_664
REMARK   88  A    between atoms: _211  and  _213
REMARK   89  A    between atoms: _213  and  _214
REMARK   90  A    between atoms: _216  and  _218
REMARK   91  A    between atoms: _218  and  _219
REMARK   92  A    between atoms: _218  and  _221
REMARK   93  A    between atoms: _221  and  _222
REMARK   94  A    between atoms: _224  and  _226
REMARK   95  A    between atoms: _226  and  _227
REMARK   96  A    between atoms: _230  and  _232
REMARK   97  A    between atoms: _232  and  _233
REMARK   98  A    between atoms: _232  and  _235
REMARK   99  A    between atoms: _235  and  _236
REMARK  100  A    between atoms: _241  and  _243
REMARK  101  A    between atoms: _243  and  _244
REMARK  102  A    between atoms: _243  and  _246
REMARK  103  A    between atoms: _246  and  _247
REMARK  104  A    between atoms: _252  and  _253
REMARK  105  A    between atoms: _255  and  _257
REMARK  106  A    between atoms: _257  and  _258
REMARK  107  A    between atoms: _257  and  _260
REMARK  108  A    between atoms: _260  and  _261
REMARK  109  A    between atoms: _264  and  _266
REMARK  110  A    between atoms: _266  and  _267
REMARK  111  A    between atoms: _266  and  _269
REMARK  112  A    between atoms: _269  and  _270
REMARK  113  A    between atoms: _270  and  _271
REMARK  114  A    between atoms: _273  and  _275
REMARK  115  A    between atoms: _275  and  _276
REMARK  116  A    between atoms: _275  and  _278
REMARK  117  A    between atoms: _278  and  _279
REMARK  118  A    between atoms: _284  and  _286
REMARK  119  A    between atoms: _286  and  _287
REMARK  120  A    between atoms: _286  and  _289
REMARK  121  A    between atoms: _289  and  _290
REMARK  122  A    between atoms: _290  and  _291
REMARK  123  A    between atoms: _290  and  _292
REMARK  124  A    between atoms: _291  and  MG_664
REMARK  125  A    between atoms: _295  and  _297
REMARK  126  A    between atoms: _297  and  _298
REMARK  127  A    between atoms: _300  and  _302
REMARK  128  A    between atoms: _302  and  _303
REMARK  129  A    between atoms: _302  and  _305
REMARK  130  A    between atoms: _305  and  _306
REMARK  131  A    between atoms: _309  and  _311
REMARK  132  A    between atoms: _311  and  _312
REMARK  133  A    between atoms: _311  and  _314
REMARK  134  A    between atoms: _314  and  _315
REMARK  135  A    between atoms: _320  and  _321
REMARK  136  A    between atoms: _323  and  _325
REMARK  137  A    between atoms: _325  and  _326
REMARK  138  A    between atoms: _328  and  _330
REMARK  139  A    between atoms: _330  and  _331
REMARK  140  A    between atoms: _334  and  _336
REMARK  141  A    between atoms: _336  and  _337
REMARK  142  A    between atoms: _336  and  _339
REMARK  143  A    between atoms: _339  and  _340
REMARK  144  A    between atoms: _343  and  _345
REMARK  145  A    between atoms: _345  and  _346
REMARK  146  A    between atoms: _345  and  _348
REMARK  147  A    between atoms: _348  and  _349
REMARK  148  A    between atoms: _349  and  _350
REMARK  149  A    between atoms: _350  and  _351
REMARK  150  A    between atoms: _360  and  _362
REMARK  151  A    between atoms: _362  and  _363
REMARK  152  A    between atoms: _362  and  _365
REMARK  153  A    between atoms: _365  and  _366
REMARK  154  A    between atoms: _376  and  _378
REMARK  155  A    between atoms: _378  and  _379
REMARK  156  A    between atoms: _378  and  _381
REMARK  157  A    between atoms: _381  and  _382
REMARK  158  A    between atoms: _388  and  _390
REMARK  159  A    between atoms: _390  and  _391
REMARK  160  A    between atoms: _394  and  _396
REMARK  161  A    between atoms: _396  and  _397
REMARK  162  A    between atoms: _399  and  _401
REMARK  163  A    between atoms: _401  and  _402
REMARK  164  A    between atoms: _401  and  _404
REMARK  165  A    between atoms: _404  and  _405
REMARK  166  A    between atoms: _408  and  _410
REMARK  167  A    between atoms: _410  and  _411
REMARK  168  A    between atoms: _410  and  _413
REMARK  169  A    between atoms: _416  and  _418
REMARK  170  A    between atoms: _418  and  _419
REMARK  171  A    between atoms: _418  and  _421
REMARK  172  A    between atoms: _421  and  _422
REMARK  173  A    between atoms: _428  and  _430
REMARK  174  A    between atoms: _430  and  _431
REMARK  175  A    between atoms: _430  and  _433
REMARK  176  A    between atoms: _433  and  _434
REMARK  177  A    between atoms: _437  and  _439
REMARK  178  A    between atoms: _439  and  _440
REMARK  179  A    between atoms: _439  and  _442
REMARK  180  A    between atoms: _445  and  _447
REMARK  181  A    between atoms: _447  and  _448
REMARK  182  A    between atoms: _447  and  _450
REMARK  183  A    between atoms: _450  and  _451
REMARK  184  A    between atoms: _457  and  _458
REMARK  185  A    between atoms: _463  and  _465
REMARK  186  A    between atoms: _465  and  _466
REMARK  187  A    between atoms: _468  and  _470
REMARK  188  A    between atoms: _470  and  _471
REMARK  189  A    between atoms: _470  and  _473
REMARK  190  A    between atoms: _473  and  _474
REMARK  191  A    between atoms: _476  and  _478
REMARK  192  A    between atoms: _478  and  _479
REMARK  193  A    between atoms: _478  and  _481
REMARK  194  A    between atoms: _481  and  _482
REMARK  195  A    between atoms: _487  and  _489
REMARK  196  A    between atoms: _489  and  _490
REMARK  197  A    between atoms: _489  and  _492
REMARK  198  A    between atoms: _492  and  _493
REMARK  199  A    between atoms: _493  and  _494
REMARK  200  A    between atoms: _497  and  _499
REMARK  201  A    between atoms: _499  and  _500
REMARK  202  A    between atoms: _499  and  _502
REMARK  203  A    between atoms: _502  and  _503
REMARK  204  A    between atoms: _506  and  _508
REMARK  205  A    between atoms: _508  and  _509
REMARK  206  A    between atoms: _508  and  _511
REMARK  207  A    between atoms: _511  and  _512
REMARK  208  A    between atoms: _515  and  _517
REMARK  209  A    between atoms: _517  and  _518
REMARK  210  A    between atoms: _521  and  _523
REMARK  211  A    between atoms: _523  and  _524
REMARK  212  A    between atoms: _523  and  _526
REMARK  213  A    between atoms: _526  and  _527
REMARK  214  A    between atoms: _530  and  _532
REMARK  215  A    between atoms: _532  and  _533
REMARK  216  A    between atoms: _532  and  _535
REMARK  217  A    between atoms: _535  and  _536
REMARK  218  A    between atoms: _536  and  _537
REMARK  219  A    between atoms: _542  and  _544
REMARK  220  A    between atoms: _544  and  _545
REMARK  221  A    between atoms: _544  and  _547
REMARK  222  A    between atoms: _547  and  _548
REMARK  223  A    between atoms: _548  and  _549
REMARK  224  A    between atoms: _552  and  _554
REMARK  225  A    between atoms: _554  and  _555
REMARK  226  A    between atoms: _558  and  _560
REMARK  227  A    between atoms: _560  and  _561
REMARK  228  A    between atoms: _560  and  _563
REMARK  229  A    between atoms: _563  and  _564
REMARK  230  A    between atoms: _567  and  _569
REMARK  231  A    between atoms: _569  and  _570
REMARK  232  A    between atoms: _569  and  _572
REMARK  233  A    between atoms: _572  and  _573
REMARK  234  A    between atoms: _578  and  _580
REMARK  235  A    between atoms: _580  and  _581
REMARK  236  A    between atoms: _580  and  _583
REMARK  237  A    between atoms: _583  and  _584
REMARK  238  A    between atoms: _586  and  _588
REMARK  239  A    between atoms: _588  and  _589
REMARK  240  A    between atoms: _592  and  _594
REMARK  241  A    between atoms: _594  and  _595
REMARK  242  A    between atoms: _598  and  _600
REMARK  243  A    between atoms: _600  and  _601
REMARK  244  A    between atoms: _603  and  _605
REMARK  245  A    between atoms: _605  and  _606
REMARK  246  A    between atoms: _605  and  _608
REMARK  247  A    between atoms: _608  and  _609
REMARK  248  A    between atoms: _612  and  _614
REMARK  249  A    between atoms: _614  and  _615
REMARK  250  A    between atoms: _617  and  _619
REMARK  251  A    between atoms: _619  and  _620
REMARK  252  A    between atoms: _619  and  _622
REMARK  253  A    between atoms: _622  and  _623
REMARK  254  A    between atoms: _628  and  _630
REMARK  255  A    between atoms: _630  and  _631
REMARK  256  A    between atoms: _634  and  _636
REMARK  257  A    between atoms: _636  and  _637
REMARK  258  A    between atoms: _636  and  _639
REMARK  259  A    between atoms: _639  and  _640
REMARK  260  A    between atoms: _640  and  _641
REMARK  261  A    between atoms: _646  and  _648
REMARK  262  A    between atoms: _648  and  _649
REMARK  263  A    between atoms: _648  and  _651
REMARK  264  A    between atoms: _651  and  _652
REMARK  265  A    between atoms: _655  and  _657
REMARK  266  A    between atoms: _657  and  _658
REMARK  267  A    between atoms: _657  and  _660
REMARK  268  A    between atoms: _660  and  _661
REMARK                            x       y       z     vdW  Elec       q    Type
REMARK                         _______ _______ _______ _____ _____    ______ ____
ROOT
ATOM      1  C   GLY A   1     108.930  51.701 103.555  0.00  0.00    +0.240 C 
ATOM      2  N   LEU A   2     110.140  51.248 103.902  0.00  0.00    -0.298 N 
ATOM      3  H   LEU A   2     110.713  51.798 104.574  0.00  0.00    +0.150 HD
ATOM      4  O   GLY A   1     108.142  51.068 102.838  0.00  0.00    -0.274 OA
ENDROOT
BRANCH   1   5
ATOM      5  CA  GLY A   1     108.512  53.044 104.102  0.00  0.00    +0.169 C 
BRANCH   5   6
ATOM      6  N   GLY A   1     109.524  53.952 104.565  0.00  0.00    -0.236 NA
ATOM      7  H   GLY A   1     109.706  54.012 105.587  0.00  0.00    +0.142 HD
ENDBRANCH   5   6
ENDBRANCH   1   5
BRANCH   2   8
ATOM      8  CA  LEU A   2     110.682  49.993 103.359  0.00  0.00    +0.137 C 
BRANCH   8   9
ATOM      9  C   LEU A   2     110.353  48.728 104.166  0.00  0.00    +0.227 C 
ATOM     10  O   LEU A   2     110.531  47.603 103.649  0.00  0.00    -0.286 OA
ENDBRANCH   8   9
BRANCH   8  11
ATOM     11  CB  LEU A   2     112.203  50.088 103.136  0.00  0.00    +0.028 C 
BRANCH  11  12
ATOM     12  CG  LEU A   2     112.660  51.230 102.201  0.00  0.00    +0.002 C 
ATOM     13  CD2 LEU A   2     114.021  50.915 101.616  0.00  0.00    +0.000 C 
ATOM     14  CD1 LEU A   2     111.679  51.544 101.050  0.00  0.00    +0.000 C 
ENDBRANCH  11  12
ENDBRANCH   8  11
ENDBRANCH   2   8
TORSDOF 6
REMARK  Name = ../refined-set-2016/3fzn/3fzn_pocket.pdb
REMARK  268 active torsions:
REMARK  status: ('A' for Active; 'I' for Inactive)
REMARK    1  A    between atoms: _1  and  _3
REMARK    2  A    between atoms: _3  and  _4
REMARK    3  A    between atoms: _6  and  _8
REMARK    4  A    between atoms: _8  and  _9
REMARK    5  A    between atoms: _8  and  _11
REMARK    6  A    between atoms: _11  and  _12
REMARK    7  A    between atoms: _17  and  _19
REMARK    8  A    between atoms: _19  and  _20
REMARK    9  A    between atoms: _19  and  _22
REMARK   10  A    between atoms: _22  and  _23
REMARK   11  A    between atoms: _25  and  _27
REMARK   12  A    between atoms: _27  and  _28
REMARK   13  A    between atoms: _27  and  _30
REMARK   14  A    between atoms: _30  and  _31
REMARK   15  A    between atoms: _36  and  _38
REMARK   16  A    between atoms: _38  and  _39
REMARK   17  A    between atoms: _38  and  _41
REMARK   18  A    between atoms: _41  and  _42
REMARK   19  A    between atoms: _42  and  _43
REMARK   20  A    between atoms: _49  and  _50
REMARK   21  A    between atoms: _55  and  _57
REMARK   22  A    between atoms: _57  and  _58
REMARK   23  A    between atoms: _57  and  _60
REMARK   24  A    between atoms: _60  and  _61
REMARK   25  A    between atoms: _66  and  _68
REMARK   26  A    between atoms: _68  and  _69
REMARK   27  A    between atoms: _68  and  _71
REMARK   28  A    between atoms: _71  and  _72
REMARK   29  A    between atoms: _72  and  _73
REMARK   30  A    between atoms: _76  and  _78
REMARK   31  A    between atoms: _78  and  _79
REMARK   32  A    between atoms: _78  and  _81
REMARK   33  A    between atoms: _81  and  _82
REMARK   34  A    between atoms: _84  and  _86
REMARK   35  A    between atoms: _86  and  _87
REMARK   36  A    between atoms: _86  and  _89
REMARK   37  A    between atoms: _89  and  _90
REMARK   38  A    between atoms: _93  and  _95
REMARK   39  A    between atoms: _95  and  _96
REMARK   40  A    between atoms: _95  and  _98
REMARK   41  A    between atoms: _98  and  _99
REMARK   42  A    between atoms: _101  and  _103
REMARK   43  A    between atoms: _103  and  _104
REMARK   44  A    between atoms: _103  and  _106
REMARK   45  A    between atoms: _106  and  _107
REMARK   46  A    between atoms: _110  and  _112
REMARK   47  A    between atoms: _112  and  _113
REMARK   48  A    between atoms: _112  and  _115
REMARK   49  A    between atoms: _115  and  _116
REMARK   50  A    between atoms: _119  and  _121
REMARK   51  A    between atoms: _121  and  _122
REMARK   52  A    between atoms: _121  and  _124
REMARK   53  A    between atoms: _124  and  _125
REMARK   54  A    between atoms: _131  and  _133
REMARK   55  A    between atoms: _133  and  _134
REMARK   56  A    between atoms: _133  and  _136
REMARK   57  A    between atoms: _138  and  _140
REMARK   58  A    between atoms: _140  and  _141
REMARK   59  A    between atoms: _144  and  _146
REMARK   60  A    between atoms: _146  and  _147
REMARK   61  A    between atoms: _149  and  _151
REMARK   62  A    between atoms: _151  and  _152
REMARK   63  A    between atoms: _154  and  _156
REMARK   64  A    between atoms: _156  and  _157
REMARK   65  A    between atoms: _156  and  _159
REMARK   66  A    between atoms: _159  and  _160
REMARK   67  A    between atoms: _163  and  _165
REMARK   68  A    between atoms: _165  and  _166
REMARK   69  A    between atoms: _168  and  _170
REMARK   70  A    between atoms: _170  and  _171
REMARK   71  A    between atoms: _170  and  _173
REMARK   72  A    between atoms: _173  and  _174
REMARK   73  A    between atoms: _180  and  _182
REMARK   74  A    between atoms: _182  and  _183
REMARK   75  A    between atoms: _182  and  _185
REMARK   76  A    between atoms: _188  and  _190
REMARK   77  A    between atoms: _190  and  _191
REMARK   78  A    between atoms: _190  and  _193
REMARK   79  A    between atoms: _193  and  _194
REMARK   80  A    between atoms: _197  and  _199
REMARK   81  A    between atoms: _199  and  _200
REMARK   82  A    between atoms: _202  and  _204
REMARK   83  A    between atoms: _204  and  _205
REMARK   84  A    between atoms: _204  and  _207
REMARK   85  A    between atoms: _207  and  _208
REMARK   86  A    between atoms: _208  and  _209
REMARK   87  A    between atoms: _209  and  MG_664
REMARK   88  A    between atoms: _211  and  _213
REMARK   89  A    between atoms: _213  and  _214
REMARK   90  A    between atoms: _216  and  _218
REMARK   91  A    between atoms: _218  and  _219
REMARK   92  A    between atoms: _218  and  _221
REMARK   93  A    between atoms: _221  and  _222
REMARK   94  A    between atoms: _224  and  _226
REMARK   95  A    between atoms: _226  and  _227
REMARK   96  A    between atoms: _230  and  _232
REMARK   97  A    between atoms: _232  and  _233
REMARK   98  A    between atoms: _232  and  _235
REMARK   99  A    between atoms: _235  and  _236
REMARK  100  A    between atoms: _241  and  _243
REMARK  101  A    between atoms: _243  and  _244
REMARK  102  A    between atoms: _243  and  _246
REMARK  103  A    between atoms: _246  and  _247
REMARK  104  A    between atoms: _252  and  _253
REMARK  105  A    between atoms: _255  and  _257
REMARK  106  A    between atoms: _257  and  _258
REMARK  107  A    between atoms: _257  and  _260
REMARK  108  A    between atoms: _260  and  _261
REMARK  109  A    between atoms: _264  and  _266
REMARK  110  A    between atoms: _266  and  _267
REMARK  111  A    between atoms: _266  and  _269
REMARK  112  A    between atoms: _269  and  _270
REMARK  113  A    between atoms: _270  and  _271
REMARK  114  A    between atoms: _273  and  _275
REMARK  115  A    between atoms: _275  and  _276
REMARK  116  A    between atoms: _275  and  _278
REMARK  117  A    between atoms: _278  and  _279
REMARK  118  A    between atoms: _284  and  _286
REMARK  119  A    between atoms: _286  and  _287
REMARK  120  A    between atoms: _286  and  _289
REMARK  121  A    between atoms: _289  and  _290
REMARK  122  A    between atoms: _290  and  _291
REMARK  123  A    between atoms: _290  and  _292
REMARK  124  A    between atoms: _291  and  MG_664
REMARK  125  A    between atoms: _295  and  _297
REMARK  126  A    between atoms: _297  and  _298
REMARK  127  A    between atoms: _300  and  _302
REMARK  128  A    between atoms: _302  and  _303
REMARK  129  A    between atoms: _302  and  _305
REMARK  130  A    between atoms: _305  and  _306
REMARK  131  A    between atoms: _309  and  _311
REMARK  132  A    between atoms: _311  and  _312
REMARK  133  A    between atoms: _311  and  _314
REMARK  134  A    between atoms: _314  and  _315
REMARK  135  A    between atoms: _320  and  _321
REMARK  136  A    between atoms: _323  and  _325
REMARK  137  A    between atoms: _325  and  _326
REMARK  138  A    between atoms: _328  and  _330
REMARK  139  A    between atoms: _330  and  _331
REMARK  140  A    between atoms: _334  and  _336
REMARK  141  A    between atoms: _336  and  _337
REMARK  142  A    between atoms: _336  and  _339
REMARK  143  A    between atoms: _339  and  _340
REMARK  144  A    between atoms: _343  and  _345
REMARK  145  A    between atoms: _345  and  _346
REMARK  146  A    between atoms: _345  and  _348
REMARK  147  A    between atoms: _348  and  _349
REMARK  148  A    between atoms: _349  and  _350
REMARK  149  A    between atoms: _350  and  _351
REMARK  150  A    between atoms: _360  and  _362
REMARK  151  A    between atoms: _362  and  _363
REMARK  152  A    between atoms: _362  and  _365
REMARK  153  A    between atoms: _365  and  _366
REMARK  154  A    between atoms: _376  and  _378
REMARK  155  A    between atoms: _378  and  _379
REMARK  156  A    between atoms: _378  and  _381
REMARK  157  A    between atoms: _381  and  _382
REMARK  158  A    between atoms: _388  and  _390
REMARK  159  A    between atoms: _390  and  _391
REMARK  160  A    between atoms: _394  and  _396
REMARK  161  A    between atoms: _396  and  _397
REMARK  162  A    between atoms: _399  and  _401
REMARK  163  A    between atoms: _401  and  _402
REMARK  164  A    between atoms: _401  and  _404
REMARK  165  A    between atoms: _404  and  _405
REMARK  166  A    between atoms: _408  and  _410
REMARK  167  A    between atoms: _410  and  _411
REMARK  168  A    between atoms: _410  and  _413
REMARK  169  A    between atoms: _416  and  _418
REMARK  170  A    between atoms: _418  and  _419
REMARK  171  A    between atoms: _418  and  _421
REMARK  172  A    between atoms: _421  and  _422
REMARK  173  A    between atoms: _428  and  _430
REMARK  174  A    between atoms: _430  and  _431
REMARK  175  A    between atoms: _430  and  _433
REMARK  176  A    between atoms: _433  and  _434
REMARK  177  A    between atoms: _437  and  _439
REMARK  178  A    between atoms: _439  and  _440
REMARK  179  A    between atoms: _439  and  _442
REMARK  180  A    between atoms: _445  and  _447
REMARK  181  A    between atoms: _447  and  _448
REMARK  182  A    between atoms: _447  and  _450
REMARK  183  A    between atoms: _450  and  _451
REMARK  184  A    between atoms: _457  and  _458
REMARK  185  A    between atoms: _463  and  _465
REMARK  186  A    between atoms: _465  and  _466
REMARK  187  A    between atoms: _468  and  _470
REMARK  188  A    between atoms: _470  and  _471
REMARK  189  A    between atoms: _470  and  _473
REMARK  190  A    between atoms: _473  and  _474
REMARK  191  A    between atoms: _476  and  _478
REMARK  192  A    between atoms: _478  and  _479
REMARK  193  A    between atoms: _478  and  _481
REMARK  194  A    between atoms: _481  and  _482
REMARK  195  A    between atoms: _487  and  _489
REMARK  196  A    between atoms: _489  and  _490
REMARK  197  A    between atoms: _489  and  _492
REMARK  198  A    between atoms: _492  and  _493
REMARK  199  A    between atoms: _493  and  _494
REMARK  200  A    between atoms: _497  and  _499
REMARK  201  A    between atoms: _499  and  _500
REMARK  202  A    between atoms: _499  and  _502
REMARK  203  A    between atoms: _502  and  _503
REMARK  204  A    between atoms: _506  and  _508
REMARK  205  A    between atoms: _508  and  _509
REMARK  206  A    between atoms: _508  and  _511
REMARK  207  A    between atoms: _511  and  _512
REMARK  208  A    between atoms: _515  and  _517
REMARK  209  A    between atoms: _517  and  _518
REMARK  210  A    between atoms: _521  and  _523
REMARK  211  A    between atoms: _523  and  _524
REMARK  212  A    between atoms: _523  and  _526
REMARK  213  A    between atoms: _526  and  _527
REMARK  214  A    between atoms: _530  and  _532
REMARK  215  A    between atoms: _532  and  _533
REMARK  216  A    between atoms: _532  and  _535
REMARK  217  A    between atoms: _535  and  _536
REMARK  218  A    between atoms: _536  and  _537
REMARK  219  A    between atoms: _542  and  _544
REMARK  220  A    between atoms: _544  and  _545
REMARK  221  A    between atoms: _544  and  _547
REMARK  222  A    between atoms: _547  and  _548
REMARK  223  A    between atoms: _548  and  _549
REMARK  224  A    between atoms: _552  and  _554
REMARK  225  A    between atoms: _554  and  _555
REMARK  226  A    between atoms: _558  and  _560
REMARK  227  A    between atoms: _560  and  _561
REMARK  228  A    between atoms: _560  and  _563
REMARK  229  A    between atoms: _563  and  _564
REMARK  230  A    between atoms: _567  and  _569
REMARK  231  A    between atoms: _569  and  _570
REMARK  232  A    between atoms: _569  and  _572
REMARK  233  A    between atoms: _572  and  _573
REMARK  234  A    between atoms: _578  and  _580
REMARK  235  A    between atoms: _580  and  _581
REMARK  236  A    between atoms: _580  and  _583
REMARK  237  A    between atoms: _583  and  _584
REMARK  238  A    between atoms: _586  and  _588
REMARK  239  A    between atoms: _588  and  _589
REMARK  240  A    between atoms: _592  and  _594
REMARK  241  A    between atoms: _594  and  _595
REMARK  242  A    between atoms: _598  and  _600
REMARK  243  A    between atoms: _600  and  _601
REMARK  244  A    between atoms: _603  and  _605
REMARK  245  A    between atoms: _605  and  _606
REMARK  246  A    between atoms: _605  and  _608
REMARK  247  A    between atoms: _608  and  _609
REMARK  248  A    between atoms: _612  and  _614
REMARK  249  A    between atoms: _614  and  _615
REMARK  250  A    between atoms: _617  and  _619
REMARK  251  A    between atoms: _619  and  _620
REMARK  252  A    between atoms: _619  and  _622
REMARK  253  A    between atoms: _622  and  _623
REMARK  254  A    between atoms: _628  and  _630
REMARK  255  A    between atoms: _630  and  _631
REMARK  256  A    between atoms: _634  and  _636
REMARK  257  A    between atoms: _636  and  _637
REMARK  258  A    between atoms: _636  and  _639
REMARK  259  A    between atoms: _639  and  _640
REMARK  260  A    between atoms: _640  and  _641
REMARK  261  A    between atoms: _646  and  _648
REMARK  262  A    between atoms: _648  and  _649
REMARK  263  A    between atoms: _648  and  _651
REMARK  264  A    between atoms: _651  and  _652
REMARK  265  A    between atoms: _655  and  _657
REMARK  266  A    between atoms: _657  and  _658
REMARK  267  A    between atoms: _657  and  _660
REMARK  268  A    between atoms: _660  and  _661
REMARK                            x       y       z     vdW  Elec       q    Type
REMARK                         _______ _______ _______ _____ _____    ______ ____
ROOT
ATOM      1  CA  VAL A   1     106.227  46.042 106.934  0.00  0.00    +0.133 C 
ENDROOT
BRANCH   1   2
ATOM      2  CB  VAL A   1     105.559  45.496 105.653  0.00  0.00    +0.023 C 
ATOM      3  CG2 VAL A   1     106.318  44.295 105.040  0.00  0.00    +0.002 C 
ATOM      4  CG1 VAL A   1     105.382  46.631 104.606  0.00  0.00    +0.002 C 
ENDBRANCH   1   2
BRANCH   1   5
ATOM      5  N   VAL A   1     107.645  46.365 106.700  0.00  0.00    -0.239 NA
ATOM      6  H   VAL A   1     108.328  45.584 106.629  0.00  0.00    +0.142 HD
ENDBRANCH   1   5
BRANCH   1   7
ATOM      7  C   VAL A   1     106.044  45.083 108.136  0.00  0.00    +0.224 C 
ATOM      8  O   VAL A   1     105.494  43.981 107.995  0.00  0.00    -0.287 OA
ENDBRANCH   1   7
TORSDOF 3
REMARK  Name = ../refined-set-2016/3fzn/3fzn_pocket.pdb
REMARK  268 active torsions:
REMARK  status: ('A' for Active; 'I' for Inactive)
REMARK    1  A    between atoms: _1  and  _3
REMARK    2  A    between atoms: _3  and  _4
REMARK    3  A    between atoms: _6  and  _8
REMARK    4  A    between atoms: _8  and  _9
REMARK    5  A    between atoms: _8  and  _11
REMARK    6  A    between atoms: _11  and  _12
REMARK    7  A    between atoms: _17  and  _19
REMARK    8  A    between atoms: _19  and  _20
REMARK    9  A    between atoms: _19  and  _22
REMARK   10  A    between atoms: _22  and  _23
REMARK   11  A    between atoms: _25  and  _27
REMARK   12  A    between atoms: _27  and  _28
REMARK   13  A    between atoms: _27  and  _30
REMARK   14  A    between atoms: _30  and  _31
REMARK   15  A    between atoms: _36  and  _38
REMARK   16  A    between atoms: _38  and  _39
REMARK   17  A    between atoms: _38  and  _41
REMARK   18  A    between atoms: _41  and  _42
REMARK   19  A    between atoms: _42  and  _43
REMARK   20  A    between atoms: _49  and  _50
REMARK   21  A    between atoms: _55  and  _57
REMARK   22  A    between atoms: _57  and  _58
REMARK   23  A    between atoms: _57  and  _60
REMARK   24  A    between atoms: _60  and  _61
REMARK   25  A    between atoms: _66  and  _68
REMARK   26  A    between atoms: _68  and  _69
REMARK   27  A    between atoms: _68  and  _71
REMARK   28  A    between atoms: _71  and  _72
REMARK   29  A    between atoms: _72  and  _73
REMARK   30  A    between atoms: _76  and  _78
REMARK   31  A    between atoms: _78  and  _79
REMARK   32  A    between atoms: _78  and  _81
REMARK   33  A    between atoms: _81  and  _82
REMARK   34  A    between atoms: _84  and  _86
REMARK   35  A    between atoms: _86  and  _87
REMARK   36  A    between atoms: _86  and  _89
REMARK   37  A    between atoms: _89  and  _90
REMARK   38  A    between atoms: _93  and  _95
REMARK   39  A    between atoms: _95  and  _96
REMARK   40  A    between atoms: _95  and  _98
REMARK   41  A    between atoms: _98  and  _99
REMARK   42  A    between atoms: _101  and  _103
REMARK   43  A    between atoms: _103  and  _104
REMARK   44  A    between atoms: _103  and  _106
REMARK   45  A    between atoms: _106  and  _107
REMARK   46  A    between atoms: _110  and  _112
REMARK   47  A    between atoms: _112  and  _113
REMARK   48  A    between atoms: _112  and  _115
REMARK   49  A    between atoms: _115  and  _116
REMARK   50  A    between atoms: _119  and  _121
REMARK   51  A    between atoms: _121  and  _122
REMARK   52  A    between atoms: _121  and  _124
REMARK   53  A    between atoms: _124  and  _125
REMARK   54  A    between atoms: _131  and  _133
REMARK   55  A    between atoms: _133  and  _134
REMARK   56  A    between atoms: _133  and  _136
REMARK   57  A    between atoms: _138  and  _140
REMARK   58  A    between atoms: _140  and  _141
REMARK   59  A    between atoms: _144  and  _146
REMARK   60  A    between atoms: _146  and  _147
REMARK   61  A    between atoms: _149  and  _151
REMARK   62  A    between atoms: _151  and  _152
REMARK   63  A    between atoms: _154  and  _156
REMARK   64  A    between atoms: _156  and  _157
REMARK   65  A    between atoms: _156  and  _159
REMARK   66  A    between atoms: _159  and  _160
REMARK   67  A    between atoms: _163  and  _165
REMARK   68  A    between atoms: _165  and  _166
REMARK   69  A    between atoms: _168  and  _170
REMARK   70  A    between atoms: _170  and  _171
REMARK   71  A    between atoms: _170  and  _173
REMARK   72  A    between atoms: _173  and  _174
REMARK   73  A    between atoms: _180  and  _182
REMARK   74  A    between atoms: _182  and  _183
REMARK   75  A    between atoms: _182  and  _185
REMARK   76  A    between atoms: _188  and  _190
REMARK   77  A    between atoms: _190  and  _191
REMARK   78  A    between atoms: _190  and  _193
REMARK   79  A    between atoms: _193  and  _194
REMARK   80  A    between atoms: _197  and  _199
REMARK   81  A    between atoms: _199  and  _200
REMARK   82  A    between atoms: _202  and  _204
REMARK   83  A    between atoms: _204  and  _205
REMARK   84  A    between atoms: _204  and  _207
REMARK   85  A    between atoms: _207  and  _208
REMARK   86  A    between atoms: _208  and  _209
REMARK   87  A    between atoms: _209  and  MG_664
REMARK   88  A    between atoms: _211  and  _213
REMARK   89  A    between atoms: _213  and  _214
REMARK   90  A    between atoms: _216  and  _218
REMARK   91  A    between atoms: _218  and  _219
REMARK   92  A    between atoms: _218  and  _221
REMARK   93  A    between atoms: _221  and  _222
REMARK   94  A    between atoms: _224  and  _226
REMARK   95  A    between atoms: _226  and  _227
REMARK   96  A    between atoms: _230  and  _232
REMARK   97  A    between atoms: _232  and  _233
REMARK   98  A    between atoms: _232  and  _235
REMARK   99  A    between atoms: _235  and  _236
REMARK  100  A    between atoms: _241  and  _243
REMARK  101  A    between atoms: _243  and  _244
REMARK  102  A    between atoms: _243  and  _246
REMARK  103  A    between atoms: _246  and  _247
REMARK  104  A    between atoms: _252  and  _253
REMARK  105  A    between atoms: _255  and  _257
REMARK  106  A    between atoms: _257  and  _258
REMARK  107  A    between atoms: _257  and  _260
REMARK  108  A    between atoms: _260  and  _261
REMARK  109  A    between atoms: _264  and  _266
REMARK  110  A    between atoms: _266  and  _267
REMARK  111  A    between atoms: _266  and  _269
REMARK  112  A    between atoms: _269  and  _270
REMARK  113  A    between atoms: _270  and  _271
REMARK  114  A    between atoms: _273  and  _275
REMARK  115  A    between atoms: _275  and  _276
REMARK  116  A    between atoms: _275  and  _278
REMARK  117  A    between atoms: _278  and  _279
REMARK  118  A    between atoms: _284  and  _286
REMARK  119  A    between atoms: _286  and  _287
REMARK  120  A    between atoms: _286  and  _289
REMARK  121  A    between atoms: _289  and  _290
REMARK  122  A    between atoms: _290  and  _291
REMARK  123  A    between atoms: _290  and  _292
REMARK  124  A    between atoms: _291  and  MG_664
REMARK  125  A    between atoms: _295  and  _297
REMARK  126  A    between atoms: _297  and  _298
REMARK  127  A    between atoms: _300  and  _302
REMARK  128  A    between atoms: _302  and  _303
REMARK  129  A    between atoms: _302  and  _305
REMARK  130  A    between atoms: _305  and  _306
REMARK  131  A    between atoms: _309  and  _311
REMARK  132  A    between atoms: _311  and  _312
REMARK  133  A    between atoms: _311  and  _314
REMARK  134  A    between atoms: _314  and  _315
REMARK  135  A    between atoms: _320  and  _321
REMARK  136  A    between atoms: _323  and  _325
REMARK  137  A    between atoms: _325  and  _326
REMARK  138  A    between atoms: _328  and  _330
REMARK  139  A    between atoms: _330  and  _331
REMARK  140  A    between atoms: _334  and  _336
REMARK  141  A    between atoms: _336  and  _337
REMARK  142  A    between atoms: _336  and  _339
REMARK  143  A    between atoms: _339  and  _340
REMARK  144  A    between atoms: _343  and  _345
REMARK  145  A    between atoms: _345  and  _346
REMARK  146  A    between atoms: _345  and  _348
REMARK  147  A    between atoms: _348  and  _349
REMARK  148  A    between atoms: _349  and  _350
REMARK  149  A    between atoms: _350  and  _351
REMARK  150  A    between atoms: _360  and  _362
REMARK  151  A    between atoms: _362  and  _363
REMARK  152  A    between atoms: _362  and  _365
REMARK  153  A    between atoms: _365  and  _366
REMARK  154  A    between atoms: _376  and  _378
REMARK  155  A    between atoms: _378  and  _379
REMARK  156  A    between atoms: _378  and  _381
REMARK  157  A    between atoms: _381  and  _382
REMARK  158  A    between atoms: _388  and  _390
REMARK  159  A    between atoms: _390  and  _391
REMARK  160  A    between atoms: _394  and  _396
REMARK  161  A    between atoms: _396  and  _397
REMARK  162  A    between atoms: _399  and  _401
REMARK  163  A    between atoms: _401  and  _402
REMARK  164  A    between atoms: _401  and  _404
REMARK  165  A    between atoms: _404  and  _405
REMARK  166  A    between atoms: _408  and  _410
REMARK  167  A    between atoms: _410  and  _411
REMARK  168  A    between atoms: _410  and  _413
REMARK  169  A    between atoms: _416  and  _418
REMARK  170  A    between atoms: _418  and  _419
REMARK  171  A    between atoms: _418  and  _421
REMARK  172  A    between atoms: _421  and  _422
REMARK  173  A    between atoms: _428  and  _430
REMARK  174  A    between atoms: _430  and  _431
REMARK  175  A    between atoms: _430  and  _433
REMARK  176  A    between atoms: _433  and  _434
REMARK  177  A    between atoms: _437  and  _439
REMARK  178  A    between atoms: _439  and  _440
REMARK  179  A    between atoms: _439  and  _442
REMARK  180  A    between atoms: _445  and  _447
REMARK  181  A    between atoms: _447  and  _448
REMARK  182  A    between atoms: _447  and  _450
REMARK  183  A    between atoms: _450  and  _451
REMARK  184  A    between atoms: _457  and  _458
REMARK  185  A    between atoms: _463  and  _465
REMARK  186  A    between atoms: _465  and  _466
REMARK  187  A    between atoms: _468  and  _470
REMARK  188  A    between atoms: _470  and  _471
REMARK  189  A    between atoms: _470  and  _473
REMARK  190  A    between atoms: _473  and  _474
REMARK  191  A    between atoms: _476  and  _478
REMARK  192  A    between atoms: _478  and  _479
REMARK  193  A    between atoms: _478  and  _481
REMARK  194  A    between atoms: _481  and  _482
REMARK  195  A    between atoms: _487  and  _489
REMARK  196  A    between atoms: _489  and  _490
REMARK  197  A    between atoms: _489  and  _492
REMARK  198  A    between atoms: _492  and  _493
REMARK  199  A    between atoms: _493  and  _494
REMARK  200  A    between atoms: _497  and  _499
REMARK  201  A    between atoms: _499  and  _500
REMARK  202  A    between atoms: _499  and  _502
REMARK  203  A    between atoms: _502  and  _503
REMARK  204  A    between atoms: _506  and  _508
REMARK  205  A    between atoms: _508  and  _509
REMARK  206  A    between atoms: _508  and  _511
REMARK  207  A    between atoms: _511  and  _512
REMARK  208  A    between atoms: _515  and  _517
REMARK  209  A    between atoms: _517  and  _518
REMARK  210  A    between atoms: _521  and  _523
REMARK  211  A    between atoms: _523  and  _524
REMARK  212  A    between atoms: _523  and  _526
REMARK  213  A    between atoms: _526  and  _527
REMARK  214  A    between atoms: _530  and  _532
REMARK  215  A    between atoms: _532  and  _533
REMARK  216  A    between atoms: _532  and  _535
REMARK  217  A    between atoms: _535  and  _536
REMARK  218  A    between atoms: _536  and  _537
REMARK  219  A    between atoms: _542  and  _544
REMARK  220  A    between atoms: _544  and  _545
REMARK  221  A    between atoms: _544  and  _547
REMARK  222  A    between atoms: _547  and  _548
REMARK  223  A    between atoms: _548  and  _549
REMARK  224  A    between atoms: _552  and  _554
REMARK  225  A    between atoms: _554  and  _555
REMARK  226  A    between atoms: _558  and  _560
REMARK  227  A    between atoms: _560  and  _561
REMARK  228  A    between atoms: _560  and  _563
REMARK  229  A    between atoms: _563  and  _564
REMARK  230  A    between atoms: _567  and  _569
REMARK  231  A    between atoms: _569  and  _570
REMARK  232  A    between atoms: _569  and  _572
REMARK  233  A    between atoms: _572  and  _573
REMARK  234  A    between atoms: _578  and  _580
REMARK  235  A    between atoms: _580  and  _581
REMARK  236  A    between atoms: _580  and  _583
REMARK  237  A    between atoms: _583  and  _584
REMARK  238  A    between atoms: _586  and  _588
REMARK  239  A    between atoms: _588  and  _589
REMARK  240  A    between atoms: _592  and  _594
REMARK  241  A    between atoms: _594  and  _595
REMARK  242  A    between atoms: _598  and  _600
REMARK  243  A    between atoms: _600  and  _601
REMARK  244  A    between atoms: _603  and  _605
REMARK  245  A    between atoms: _605  and  _606
REMARK  246  A    between atoms: _605  and  _608
REMARK  247  A    between atoms: _608  and  _609
REMARK  248  A    between atoms: _612  and  _614
REMARK  249  A    between atoms: _614  and  _615
REMARK  250  A    between atoms: _617  and  _619
REMARK  251  A    between atoms: _619  and  _620
REMARK  252  A    between atoms: _619  and  _622
REMARK  253  A    between atoms: _622  and  _623
REMARK  254  A    between atoms: _628  and  _630
REMARK  255  A    between atoms: _630  and  _631
REMARK  256  A    between atoms: _634  and  _636
REMARK  257  A    between atoms: _636  and  _637
REMARK  258  A    between atoms: _636  and  _639
REMARK  259  A    between atoms: _639  and  _640
REMARK  260  A    between atoms: _640  and  _641
REMARK  261  A    between atoms: _646  and  _648
REMARK  262  A    between atoms: _648  and  _649
REMARK  263  A    between atoms: _648  and  _651
REMARK  264  A    between atoms: _651  and  _652
REMARK  265  A    between atoms: _655  and  _657
REMARK  266  A    between atoms: _657  and  _658
REMARK  267  A    between atoms: _657  and  _660
REMARK  268  A    between atoms: _660  and  _661
REMARK                            x       y       z     vdW  Elec       q    Type
REMARK                         _______ _______ _______ _____ _____    ______ ____
ROOT
ATOM      1  CB  PHE A   1     100.247  35.707 107.000  0.00  0.00    +0.051 C 
ENDROOT
BRANCH   1   2
ATOM      2  CG  PHE A   1     100.937  36.904 106.423  0.00  0.00    -0.020 A 
ATOM      3  CD2 PHE A   1     102.140  37.335 106.938  0.00  0.00    -0.004 A 
ATOM      4  CE2 PHE A   1     102.799  38.455 106.423  0.00  0.00    -0.000 A 
ATOM      5  CZ  PHE A   1     102.207  39.156 105.364  0.00  0.00    -0.000 A 
ATOM      6  CE1 PHE A   1     101.006  38.748 104.852  0.00  0.00    -0.000 A 
ATOM      7  CD1 PHE A   1     100.358  37.607 105.365  0.00  0.00    -0.004 A 
ENDBRANCH   1   2
BRANCH   1   8
ATOM      8  CA  PHE A   1      99.210  36.072 108.052  0.00  0.00    +0.137 C 
BRANCH   8   9
ATOM      9  N   PHE A   1      99.833  36.704 109.241  0.00  0.00    -0.239 NA
ATOM     10  H   PHE A   1     100.856  36.598 109.398  0.00  0.00    +0.142 HD
ENDBRANCH   8   9
BRANCH   8  11
ATOM     11  C   PHE A   1      98.275  34.914 108.368  0.00  0.00    +0.224 C 
ATOM     12  O   PHE A   1      97.279  34.709 107.680  0.00  0.00    -0.287 OA
ENDBRANCH   8  11
ENDBRANCH   1   8
TORSDOF 4
REMARK  Name = ../refined-set-2016/3fzn/3fzn_pocket.pdb
REMARK  268 active torsions:
REMARK  status: ('A' for Active; 'I' for Inactive)
REMARK    1  A    between atoms: _1  and  _3
REMARK    2  A    between atoms: _3  and  _4
REMARK    3  A    between atoms: _6  and  _8
REMARK    4  A    between atoms: _8  and  _9
REMARK    5  A    between atoms: _8  and  _11
REMARK    6  A    between atoms: _11  and  _12
REMARK    7  A    between atoms: _17  and  _19
REMARK    8  A    between atoms: _19  and  _20
REMARK    9  A    between atoms: _19  and  _22
REMARK   10  A    between atoms: _22  and  _23
REMARK   11  A    between atoms: _25  and  _27
REMARK   12  A    between atoms: _27  and  _28
REMARK   13  A    between atoms: _27  and  _30
REMARK   14  A    between atoms: _30  and  _31
REMARK   15  A    between atoms: _36  and  _38
REMARK   16  A    between atoms: _38  and  _39
REMARK   17  A    between atoms: _38  and  _41
REMARK   18  A    between atoms: _41  and  _42
REMARK   19  A    between atoms: _42  and  _43
REMARK   20  A    between atoms: _49  and  _50
REMARK   21  A    between atoms: _55  and  _57
REMARK   22  A    between atoms: _57  and  _58
REMARK   23  A    between atoms: _57  and  _60
REMARK   24  A    between atoms: _60  and  _61
REMARK   25  A    between atoms: _66  and  _68
REMARK   26  A    between atoms: _68  and  _69
REMARK   27  A    between atoms: _68  and  _71
REMARK   28  A    between atoms: _71  and  _72
REMARK   29  A    between atoms: _72  and  _73
REMARK   30  A    between atoms: _76  and  _78
REMARK   31  A    between atoms: _78  and  _79
REMARK   32  A    between atoms: _78  and  _81
REMARK   33  A    between atoms: _81  and  _82
REMARK   34  A    between atoms: _84  and  _86
REMARK   35  A    between atoms: _86  and  _87
REMARK   36  A    between atoms: _86  and  _89
REMARK   37  A    between atoms: _89  and  _90
REMARK   38  A    between atoms: _93  and  _95
REMARK   39  A    between atoms: _95  and  _96
REMARK   40  A    between atoms: _95  and  _98
REMARK   41  A    between atoms: _98  and  _99
REMARK   42  A    between atoms: _101  and  _103
REMARK   43  A    between atoms: _103  and  _104
REMARK   44  A    between atoms: _103  and  _106
REMARK   45  A    between atoms: _106  and  _107
REMARK   46  A    between atoms: _110  and  _112
REMARK   47  A    between atoms: _112  and  _113
REMARK   48  A    between atoms: _112  and  _115
REMARK   49  A    between atoms: _115  and  _116
REMARK   50  A    between atoms: _119  and  _121
REMARK   51  A    between atoms: _121  and  _122
REMARK   52  A    between atoms: _121  and  _124
REMARK   53  A    between atoms: _124  and  _125
REMARK   54  A    between atoms: _131  and  _133
REMARK   55  A    between atoms: _133  and  _134
REMARK   56  A    between atoms: _133  and  _136
REMARK   57  A    between atoms: _138  and  _140
REMARK   58  A    between atoms: _140  and  _141
REMARK   59  A    between atoms: _144  and  _146
REMARK   60  A    between atoms: _146  and  _147
REMARK   61  A    between atoms: _149  and  _151
REMARK   62  A    between atoms: _151  and  _152
REMARK   63  A    between atoms: _154  and  _156
REMARK   64  A    between atoms: _156  and  _157
REMARK   65  A    between atoms: _156  and  _159
REMARK   66  A    between atoms: _159  and  _160
REMARK   67  A    between atoms: _163  and  _165
REMARK   68  A    between atoms: _165  and  _166
REMARK   69  A    between atoms: _168  and  _170
REMARK   70  A    between atoms: _170  and  _171
REMARK   71  A    between atoms: _170  and  _173
REMARK   72  A    between atoms: _173  and  _174
REMARK   73  A    between atoms: _180  and  _182
REMARK   74  A    between atoms: _182  and  _183
REMARK   75  A    between atoms: _182  and  _185
REMARK   76  A    between atoms: _188  and  _190
REMARK   77  A    between atoms: _190  and  _191
REMARK   78  A    between atoms: _190  and  _193
REMARK   79  A    between atoms: _193  and  _194
REMARK   80  A    between atoms: _197  and  _199
REMARK   81  A    between atoms: _199  and  _200
REMARK   82  A    between atoms: _202  and  _204
REMARK   83  A    between atoms: _204  and  _205
REMARK   84  A    between atoms: _204  and  _207
REMARK   85  A    between atoms: _207  and  _208
REMARK   86  A    between atoms: _208  and  _209
REMARK   87  A    between atoms: _209  and  MG_664
REMARK   88  A    between atoms: _211  and  _213
REMARK   89  A    between atoms: _213  and  _214
REMARK   90  A    between atoms: _216  and  _218
REMARK   91  A    between atoms: _218  and  _219
REMARK   92  A    between atoms: _218  and  _221
REMARK   93  A    between atoms: _221  and  _222
REMARK   94  A    between atoms: _224  and  _226
REMARK   95  A    between atoms: _226  and  _227
REMARK   96  A    between atoms: _230  and  _232
REMARK   97  A    between atoms: _232  and  _233
REMARK   98  A    between atoms: _232  and  _235
REMARK   99  A    between atoms: _235  and  _236
REMARK  100  A    between atoms: _241  and  _243
REMARK  101  A    between atoms: _243  and  _244
REMARK  102  A    between atoms: _243  and  _246
REMARK  103  A    between atoms: _246  and  _247
REMARK  104  A    between atoms: _252  and  _253
REMARK  105  A    between atoms: _255  and  _257
REMARK  106  A    between atoms: _257  and  _258
REMARK  107  A    between atoms: _257  and  _260
REMARK  108  A    between atoms: _260  and  _261
REMARK  109  A    between atoms: _264  and  _266
REMARK  110  A    between atoms: _266  and  _267
REMARK  111  A    between atoms: _266  and  _269
REMARK  112  A    between atoms: _269  and  _270
REMARK  113  A    between atoms: _270  and  _271
REMARK  114  A    between atoms: _273  and  _275
REMARK  115  A    between atoms: _275  and  _276
REMARK  116  A    between atoms: _275  and  _278
REMARK  117  A    between atoms: _278  and  _279
REMARK  118  A    between atoms: _284  and  _286
REMARK  119  A    between atoms: _286  and  _287
REMARK  120  A    between atoms: _286  and  _289
REMARK  121  A    between atoms: _289  and  _290
REMARK  122  A    between atoms: _290  and  _291
REMARK  123  A    between atoms: _290  and  _292
REMARK  124  A    between atoms: _291  and  MG_664
REMARK  125  A    between atoms: _295  and  _297
REMARK  126  A    between atoms: _297  and  _298
REMARK  127  A    between atoms: _300  and  _302
REMARK  128  A    between atoms: _302  and  _303
REMARK  129  A    between atoms: _302  and  _305
REMARK  130  A    between atoms: _305  and  _306
REMARK  131  A    between atoms: _309  and  _311
REMARK  132  A    between atoms: _311  and  _312
REMARK  133  A    between atoms: _311  and  _314
REMARK  134  A    between atoms: _314  and  _315
REMARK  135  A    between atoms: _320  and  _321
REMARK  136  A    between atoms: _323  and  _325
REMARK  137  A    between atoms: _325  and  _326
REMARK  138  A    between atoms: _328  and  _330
REMARK  139  A    between atoms: _330  and  _331
REMARK  140  A    between atoms: _334  and  _336
REMARK  141  A    between atoms: _336  and  _337
REMARK  142  A    between atoms: _336  and  _339
REMARK  143  A    between atoms: _339  and  _340
REMARK  144  A    between atoms: _343  and  _345
REMARK  145  A    between atoms: _345  and  _346
REMARK  146  A    between atoms: _345  and  _348
REMARK  147  A    between atoms: _348  and  _349
REMARK  148  A    between atoms: _349  and  _350
REMARK  149  A    between atoms: _350  and  _351
REMARK  150  A    between atoms: _360  and  _362
REMARK  151  A    between atoms: _362  and  _363
REMARK  152  A    between atoms: _362  and  _365
REMARK  153  A    between atoms: _365  and  _366
REMARK  154  A    between atoms: _376  and  _378
REMARK  155  A    between atoms: _378  and  _379
REMARK  156  A    between atoms: _378  and  _381
REMARK  157  A    between atoms: _381  and  _382
REMARK  158  A    between atoms: _388  and  _390
REMARK  159  A    between atoms: _390  and  _391
REMARK  160  A    between atoms: _394  and  _396
REMARK  161  A    between atoms: _396  and  _397
REMARK  162  A    between atoms: _399  and  _401
REMARK  163  A    between atoms: _401  and  _402
REMARK  164  A    between atoms: _401  and  _404
REMARK  165  A    between atoms: _404  and  _405
REMARK  166  A    between atoms: _408  and  _410
REMARK  167  A    between atoms: _410  and  _411
REMARK  168  A    between atoms: _410  and  _413
REMARK  169  A    between atoms: _416  and  _418
REMARK  170  A    between atoms: _418  and  _419
REMARK  171  A    between atoms: _418  and  _421
REMARK  172  A    between atoms: _421  and  _422
REMARK  173  A    between atoms: _428  and  _430
REMARK  174  A    between atoms: _430  and  _431
REMARK  175  A    between atoms: _430  and  _433
REMARK  176  A    between atoms: _433  and  _434
REMARK  177  A    between atoms: _437  and  _439
REMARK  178  A    between atoms: _439  and  _440
REMARK  179  A    between atoms: _439  and  _442
REMARK  180  A    between atoms: _445  and  _447
REMARK  181  A    between atoms: _447  and  _448
REMARK  182  A    between atoms: _447  and  _450
REMARK  183  A    between atoms: _450  and  _451
REMARK  184  A    between atoms: _457  and  _458
REMARK  185  A    between atoms: _463  and  _465
REMARK  186  A    between atoms: _465  and  _466
REMARK  187  A    between atoms: _468  and  _470
REMARK  188  A    between atoms: _470  and  _471
REMARK  189  A    between atoms: _470  and  _473
REMARK  190  A    between atoms: _473  and  _474
REMARK  191  A    between atoms: _476  and  _478
REMARK  192  A    between atoms: _478  and  _479
REMARK  193  A    between atoms: _478  and  _481
REMARK  194  A    between atoms: _481  and  _482
REMARK  195  A    between atoms: _487  and  _489
REMARK  196  A    between atoms: _489  and  _490
REMARK  197  A    between atoms: _489  and  _492
REMARK  198  A    between atoms: _492  and  _493
REMARK  199  A    between atoms: _493  and  _494
REMARK  200  A    between atoms: _497  and  _499
REMARK  201  A    between atoms: _499  and  _500
REMARK  202  A    between atoms: _499  and  _502
REMARK  203  A    between atoms: _502  and  _503
REMARK  204  A    between atoms: _506  and  _508
REMARK  205  A    between atoms: _508  and  _509
REMARK  206  A    between atoms: _508  and  _511
REMARK  207  A    between atoms: _511  and  _512
REMARK  208  A    between atoms: _515  and  _517
REMARK  209  A    between atoms: _517  and  _518
REMARK  210  A    between atoms: _521  and  _523
REMARK  211  A    between atoms: _523  and  _524
REMARK  212  A    between atoms: _523  and  _526
REMARK  213  A    between atoms: _526  and  _527
REMARK  214  A    between atoms: _530  and  _532
REMARK  215  A    between atoms: _532  and  _533
REMARK  216  A    between atoms: _532  and  _535
REMARK  217  A    between atoms: _535  and  _536
REMARK  218  A    between atoms: _536  and  _537
REMARK  219  A    between atoms: _542  and  _544
REMARK  220  A    between atoms: _544  and  _545
REMARK  221  A    between atoms: _544  and  _547
REMARK  222  A    between atoms: _547  and  _548
REMARK  223  A    between atoms: _548  and  _549
REMARK  224  A    between atoms: _552  and  _554
REMARK  225  A    between atoms: _554  and  _555
REMARK  226  A    between atoms: _558  and  _560
REMARK  227  A    between atoms: _560  and  _561
REMARK  228  A    between atoms: _560  and  _563
REMARK  229  A    between atoms: _563  and  _564
REMARK  230  A    between atoms: _567  and  _569
REMARK  231  A    between atoms: _569  and  _570
REMARK  232  A    between atoms: _569  and  _572
REMARK  233  A    between atoms: _572  and  _573
REMARK  234  A    between atoms: _578  and  _580
REMARK  235  A    between atoms: _580  and  _581
REMARK  236  A    between atoms: _580  and  _583
REMARK  237  A    between atoms: _583  and  _584
REMARK  238  A    between atoms: _586  and  _588
REMARK  239  A    between atoms: _588  and  _589
REMARK  240  A    between atoms: _592  and  _594
REMARK  241  A    between atoms: _594  and  _595
REMARK  242  A    between atoms: _598  and  _600
REMARK  243  A    between atoms: _600  and  _601
REMARK  244  A    between atoms: _603  and  _605
REMARK  245  A    between atoms: _605  and  _606
REMARK  246  A    between atoms: _605  and  _608
REMARK  247  A    between atoms: _608  and  _609
REMARK  248  A    between atoms: _612  and  _614
REMARK  249  A    between atoms: _614  and  _615
REMARK  250  A    between atoms: _617  and  _619
REMARK  251  A    between atoms: _619  and  _620
REMARK  252  A    between atoms: _619  and  _622
REMARK  253  A    between atoms: _622  and  _623
REMARK  254  A    between atoms: _628  and  _630
REMARK  255  A    between atoms: _630  and  _631
REMARK  256  A    between atoms: _634  and  _636
REMARK  257  A    between atoms: _636  and  _637
REMARK  258  A    between atoms: _636  and  _639
REMARK  259  A    between atoms: _639  and  _640
REMARK  260  A    between atoms: _640  and  _641
REMARK  261  A    between atoms: _646  and  _648
REMARK  262  A    between atoms: _648  and  _649
REMARK  263  A    between atoms: _648  and  _651
REMARK  264  A    between atoms: _651  and  _652
REMARK  265  A    between atoms: _655  and  _657
REMARK  266  A    between atoms: _657  and  _658
REMARK  267  A    between atoms: _657  and  _660
REMARK  268  A    between atoms: _660  and  _661
REMARK                            x       y       z     vdW  Elec       q    Type
REMARK                         _______ _______ _______ _____ _____    ______ ____
ROOT
ATOM      1  C   THR A   1     113.607  34.593 106.614  0.00  0.00    +0.241 C 
ATOM      2  O   THR A   1     113.315  35.567 107.317  0.00  0.00    -0.274 OA
ATOM      3  N   VAL A   2     114.858  34.344 106.225  0.00  0.00    -0.298 N 
ATOM      4  H   VAL A   2     115.046  33.552 105.578  0.00  0.00    +0.150 HD
ENDROOT
BRANCH   1   5
ATOM      5  CA  THR A   1     112.542  33.591 106.151  0.00  0.00    +0.172 C 
BRANCH   5   6
ATOM      6  N   THR A   1     111.330  33.626 106.969  0.00  0.00    -0.236 NA
ATOM      7  H   THR A   1     110.681  34.436 106.906  0.00  0.00    +0.142 HD
ENDBRANCH   5   6
BRANCH   5   8
ATOM      8  CB  THR A   1     112.245  33.867 104.657  0.00  0.00    +0.135 C 
ATOM      9  CG2 THR A   1     111.395  32.739 104.043  0.00  0.00    +0.034 C 
BRANCH   8  10
ATOM     10  OG1 THR A   1     111.591  35.127 104.561  0.00  0.00    -0.383 OA
ATOM     11  HG1 THR A   1     111.392  35.323 103.611  0.00  0.00    +0.210 HD
ENDBRANCH   8  10
ENDBRANCH   5   8
ENDBRANCH   1   5
BRANCH   3  12
ATOM     12  CA  VAL A   2     115.978  35.178 106.701  0.00  0.00    +0.137 C 
BRANCH  12  13
ATOM     13  CB  VAL A   2     117.348  34.562 106.323  0.00  0.00    +0.026 C 
ATOM     14  CG2 VAL A   2     117.515  33.201 107.002  0.00  0.00    +0.002 C 
ATOM     15  CG1 VAL A   2     117.501  34.448 104.827  0.00  0.00    +0.002 C 
ENDBRANCH  12  13
BRANCH  12  16
ATOM     16  C   VAL A   2     115.919  36.624 106.222  0.00  0.00    +0.227 C 
ATOM     17  O   VAL A   2     115.742  36.871 105.036  0.00  0.00    -0.286 OA
ENDBRANCH  12  16
ENDBRANCH   3  12
TORSDOF 7
REMARK  Name = ../refined-set-2016/3fzn/3fzn_pocket.pdb
REMARK  268 active torsions:
REMARK  status: ('A' for Active; 'I' for Inactive)
REMARK    1  A    between atoms: _1  and  _3
REMARK    2  A    between atoms: _3  and  _4
REMARK    3  A    between atoms: _6  and  _8
REMARK    4  A    between atoms: _8  and  _9
REMARK    5  A    between atoms: _8  and  _11
REMARK    6  A    between atoms: _11  and  _12
REMARK    7  A    between atoms: _17  and  _19
REMARK    8  A    between atoms: _19  and  _20
REMARK    9  A    between atoms: _19  and  _22
REMARK   10  A    between atoms: _22  and  _23
REMARK   11  A    between atoms: _25  and  _27
REMARK   12  A    between atoms: _27  and  _28
REMARK   13  A    between atoms: _27  and  _30
REMARK   14  A    between atoms: _30  and  _31
REMARK   15  A    between atoms: _36  and  _38
REMARK   16  A    between atoms: _38  and  _39
REMARK   17  A    between atoms: _38  and  _41
REMARK   18  A    between atoms: _41  and  _42
REMARK   19  A    between atoms: _42  and  _43
REMARK   20  A    between atoms: _49  and  _50
REMARK   21  A    between atoms: _55  and  _57
REMARK   22  A    between atoms: _57  and  _58
REMARK   23  A    between atoms: _57  and  _60
REMARK   24  A    between atoms: _60  and  _61
REMARK   25  A    between atoms: _66  and  _68
REMARK   26  A    between atoms: _68  and  _69
REMARK   27  A    between atoms: _68  and  _71
REMARK   28  A    between atoms: _71  and  _72
REMARK   29  A    between atoms: _72  and  _73
REMARK   30  A    between atoms: _76  and  _78
REMARK   31  A    between atoms: _78  and  _79
REMARK   32  A    between atoms: _78  and  _81
REMARK   33  A    between atoms: _81  and  _82
REMARK   34  A    between atoms: _84  and  _86
REMARK   35  A    between atoms: _86  and  _87
REMARK   36  A    between atoms: _86  and  _89
REMARK   37  A    between atoms: _89  and  _90
REMARK   38  A    between atoms: _93  and  _95
REMARK   39  A    between atoms: _95  and  _96
REMARK   40  A    between atoms: _95  and  _98
REMARK   41  A    between atoms: _98  and  _99
REMARK   42  A    between atoms: _101  and  _103
REMARK   43  A    between atoms: _103  and  _104
REMARK   44  A    between atoms: _103  and  _106
REMARK   45  A    between atoms: _106  and  _107
REMARK   46  A    between atoms: _110  and  _112
REMARK   47  A    between atoms: _112  and  _113
REMARK   48  A    between atoms: _112  and  _115
REMARK   49  A    between atoms: _115  and  _116
REMARK   50  A    between atoms: _119  and  _121
REMARK   51  A    between atoms: _121  and  _122
REMARK   52  A    between atoms: _121  and  _124
REMARK   53  A    between atoms: _124  and  _125
REMARK   54  A    between atoms: _131  and  _133
REMARK   55  A    between atoms: _133  and  _134
REMARK   56  A    between atoms: _133  and  _136
REMARK   57  A    between atoms: _138  and  _140
REMARK   58  A    between atoms: _140  and  _141
REMARK   59  A    between atoms: _144  and  _146
REMARK   60  A    between atoms: _146  and  _147
REMARK   61  A    between atoms: _149  and  _151
REMARK   62  A    between atoms: _151  and  _152
REMARK   63  A    between atoms: _154  and  _156
REMARK   64  A    between atoms: _156  and  _157
REMARK   65  A    between atoms: _156  and  _159
REMARK   66  A    between atoms: _159  and  _160
REMARK   67  A    between atoms: _163  and  _165
REMARK   68  A    between atoms: _165  and  _166
REMARK   69  A    between atoms: _168  and  _170
REMARK   70  A    between atoms: _170  and  _171
REMARK   71  A    between atoms: _170  and  _173
REMARK   72  A    between atoms: _173  and  _174
REMARK   73  A    between atoms: _180  and  _182
REMARK   74  A    between atoms: _182  and  _183
REMARK   75  A    between atoms: _182  and  _185
REMARK   76  A    between atoms: _188  and  _190
REMARK   77  A    between atoms: _190  and  _191
REMARK   78  A    between atoms: _190  and  _193
REMARK   79  A    between atoms: _193  and  _194
REMARK   80  A    between atoms: _197  and  _199
REMARK   81  A    between atoms: _199  and  _200
REMARK   82  A    between atoms: _202  and  _204
REMARK   83  A    between atoms: _204  and  _205
REMARK   84  A    between atoms: _204  and  _207
REMARK   85  A    between atoms: _207  and  _208
REMARK   86  A    between atoms: _208  and  _209
REMARK   87  A    between atoms: _209  and  MG_664
REMARK   88  A    between atoms: _211  and  _213
REMARK   89  A    between atoms: _213  and  _214
REMARK   90  A    between atoms: _216  and  _218
REMARK   91  A    between atoms: _218  and  _219
REMARK   92  A    between atoms: _218  and  _221
REMARK   93  A    between atoms: _221  and  _222
REMARK   94  A    between atoms: _224  and  _226
REMARK   95  A    between atoms: _226  and  _227
REMARK   96  A    between atoms: _230  and  _232
REMARK   97  A    between atoms: _232  and  _233
REMARK   98  A    between atoms: _232  and  _235
REMARK   99  A    between atoms: _235  and  _236
REMARK  100  A    between atoms: _241  and  _243
REMARK  101  A    between atoms: _243  and  _244
REMARK  102  A    between atoms: _243  and  _246
REMARK  103  A    between atoms: _246  and  _247
REMARK  104  A    between atoms: _252  and  _253
REMARK  105  A    between atoms: _255  and  _257
REMARK  106  A    between atoms: _257  and  _258
REMARK  107  A    between atoms: _257  and  _260
REMARK  108  A    between atoms: _260  and  _261
REMARK  109  A    between atoms: _264  and  _266
REMARK  110  A    between atoms: _266  and  _267
REMARK  111  A    between atoms: _266  and  _269
REMARK  112  A    between atoms: _269  and  _270
REMARK  113  A    between atoms: _270  and  _271
REMARK  114  A    between atoms: _273  and  _275
REMARK  115  A    between atoms: _275  and  _276
REMARK  116  A    between atoms: _275  and  _278
REMARK  117  A    between atoms: _278  and  _279
REMARK  118  A    between atoms: _284  and  _286
REMARK  119  A    between atoms: _286  and  _287
REMARK  120  A    between atoms: _286  and  _289
REMARK  121  A    between atoms: _289  and  _290
REMARK  122  A    between atoms: _290  and  _291
REMARK  123  A    between atoms: _290  and  _292
REMARK  124  A    between atoms: _291  and  MG_664
REMARK  125  A    between atoms: _295  and  _297
REMARK  126  A    between atoms: _297  and  _298
REMARK  127  A    between atoms: _300  and  _302
REMARK  128  A    between atoms: _302  and  _303
REMARK  129  A    between atoms: _302  and  _305
REMARK  130  A    between atoms: _305  and  _306
REMARK  131  A    between atoms: _309  and  _311
REMARK  132  A    between atoms: _311  and  _312
REMARK  133  A    between atoms: _311  and  _314
REMARK  134  A    between atoms: _314  and  _315
REMARK  135  A    between atoms: _320  and  _321
REMARK  136  A    between atoms: _323  and  _325
REMARK  137  A    between atoms: _325  and  _326
REMARK  138  A    between atoms: _328  and  _330
REMARK  139  A    between atoms: _330  and  _331
REMARK  140  A    between atoms: _334  and  _336
REMARK  141  A    between atoms: _336  and  _337
REMARK  142  A    between atoms: _336  and  _339
REMARK  143  A    between atoms: _339  and  _340
REMARK  144  A    between atoms: _343  and  _345
REMARK  145  A    between atoms: _345  and  _346
REMARK  146  A    between atoms: _345  and  _348
REMARK  147  A    between atoms: _348  and  _349
REMARK  148  A    between atoms: _349  and  _350
REMARK  149  A    between atoms: _350  and  _351
REMARK  150  A    between atoms: _360  and  _362
REMARK  151  A    between atoms: _362  and  _363
REMARK  152  A    between atoms: _362  and  _365
REMARK  153  A    between atoms: _365  and  _366
REMARK  154  A    between atoms: _376  and  _378
REMARK  155  A    between atoms: _378  and  _379
REMARK  156  A    between atoms: _378  and  _381
REMARK  157  A    between atoms: _381  and  _382
REMARK  158  A    between atoms: _388  and  _390
REMARK  159  A    between atoms: _390  and  _391
REMARK  160  A    between atoms: _394  and  _396
REMARK  161  A    between atoms: _396  and  _397
REMARK  162  A    between atoms: _399  and  _401
REMARK  163  A    between atoms: _401  and  _402
REMARK  164  A    between atoms: _401  and  _404
REMARK  165  A    between atoms: _404  and  _405
REMARK  166  A    between atoms: _408  and  _410
REMARK  167  A    between atoms: _410  and  _411
REMARK  168  A    between atoms: _410  and  _413
REMARK  169  A    between atoms: _416  and  _418
REMARK  170  A    between atoms: _418  and  _419
REMARK  171  A    between atoms: _418  and  _421
REMARK  172  A    between atoms: _421  and  _422
REMARK  173  A    between atoms: _428  and  _430
REMARK  174  A    between atoms: _430  and  _431
REMARK  175  A    between atoms: _430  and  _433
REMARK  176  A    between atoms: _433  and  _434
REMARK  177  A    between atoms: _437  and  _439
REMARK  178  A    between atoms: _439  and  _440
REMARK  179  A    between atoms: _439  and  _442
REMARK  180  A    between atoms: _445  and  _447
REMARK  181  A    between atoms: _447  and  _448
REMARK  182  A    between atoms: _447  and  _450
REMARK  183  A    between atoms: _450  and  _451
REMARK  184  A    between atoms: _457  and  _458
REMARK  185  A    between atoms: _463  and  _465
REMARK  186  A    between atoms: _465  and  _466
REMARK  187  A    between atoms: _468  and  _470
REMARK  188  A    between atoms: _470  and  _471
REMARK  189  A    between atoms: _470  and  _473
REMARK  190  A    between atoms: _473  and  _474
REMARK  191  A    between atoms: _476  and  _478
REMARK  192  A    between atoms: _478  and  _479
REMARK  193  A    between atoms: _478  and  _481
REMARK  194  A    between atoms: _481  and  _482
REMARK  195  A    between atoms: _487  and  _489
REMARK  196  A    between atoms: _489  and  _490
REMARK  197  A    between atoms: _489  and  _492
REMARK  198  A    between atoms: _492  and  _493
REMARK  199  A    between atoms: _493  and  _494
REMARK  200  A    between atoms: _497  and  _499
REMARK  201  A    between atoms: _499  and  _500
REMARK  202  A    between atoms: _499  and  _502
REMARK  203  A    between atoms: _502  and  _503
REMARK  204  A    between atoms: _506  and  _508
REMARK  205  A    between atoms: _508  and  _509
REMARK  206  A    between atoms: _508  and  _511
REMARK  207  A    between atoms: _511  and  _512
REMARK  208  A    between atoms: _515  and  _517
REMARK  209  A    between atoms: _517  and  _518
REMARK  210  A    between atoms: _521  and  _523
REMARK  211  A    between atoms: _523  and  _524
REMARK  212  A    between atoms: _523  and  _526
REMARK  213  A    between atoms: _526  and  _527
REMARK  214  A    between atoms: _530  and  _532
REMARK  215  A    between atoms: _532  and  _533
REMARK  216  A    between atoms: _532  and  _535
REMARK  217  A    between atoms: _535  and  _536
REMARK  218  A    between atoms: _536  and  _537
REMARK  219  A    between atoms: _542  and  _544
REMARK  220  A    between atoms: _544  and  _545
REMARK  221  A    between atoms: _544  and  _547
REMARK  222  A    between atoms: _547  and  _548
REMARK  223  A    between atoms: _548  and  _549
REMARK  224  A    between atoms: _552  and  _554
REMARK  225  A    between atoms: _554  and  _555
REMARK  226  A    between atoms: _558  and  _560
REMARK  227  A    between atoms: _560  and  _561
REMARK  228  A    between atoms: _560  and  _563
REMARK  229  A    between atoms: _563  and  _564
REMARK  230  A    between atoms: _567  and  _569
REMARK  231  A    between atoms: _569  and  _570
REMARK  232  A    between atoms: _569  and  _572
REMARK  233  A    between atoms: _572  and  _573
REMARK  234  A    between atoms: _578  and  _580
REMARK  235  A    between atoms: _580  and  _581
REMARK  236  A    between atoms: _580  and  _583
REMARK  237  A    between atoms: _583  and  _584
REMARK  238  A    between atoms: _586  and  _588
REMARK  239  A    between atoms: _588  and  _589
REMARK  240  A    between atoms: _592  and  _594
REMARK  241  A    between atoms: _594  and  _595
REMARK  242  A    between atoms: _598  and  _600
REMARK  243  A    between atoms: _600  and  _601
REMARK  244  A    between atoms: _603  and  _605
REMARK  245  A    between atoms: _605  and  _606
REMARK  246  A    between atoms: _605  and  _608
REMARK  247  A    between atoms: _608  and  _609
REMARK  248  A    between atoms: _612  and  _614
REMARK  249  A    between atoms: _614  and  _615
REMARK  250  A    between atoms: _617  and  _619
REMARK  251  A    between atoms: _619  and  _620
REMARK  252  A    between atoms: _619  and  _622
REMARK  253  A    between atoms: _622  and  _623
REMARK  254  A    between atoms: _628  and  _630
REMARK  255  A    between atoms: _630  and  _631
REMARK  256  A    between atoms: _634  and  _636
REMARK  257  A    between atoms: _636  and  _637
REMARK  258  A    between atoms: _636  and  _639
REMARK  259  A    between atoms: _639  and  _640
REMARK  260  A    between atoms: _640  and  _641
REMARK  261  A    between atoms: _646  and  _648
REMARK  262  A    between atoms: _648  and  _649
REMARK  263  A    between atoms: _648  and  _651
REMARK  264  A    between atoms: _651  and  _652
REMARK  265  A    between atoms: _655  and  _657
REMARK  266  A    between atoms: _657  and  _658
REMARK  267  A    between atoms: _657  and  _660
REMARK  268  A    between atoms: _660  and  _661
REMARK                            x       y       z     vdW  Elec       q    Type
REMARK                         _______ _______ _______ _____ _____    ______ ____
ROOT
ATOM      1  C   SER A   4     112.250  53.144  91.836  0.00  0.00    +0.243 C 
ATOM      2  O   SER A   4     113.185  53.944  92.003  0.00  0.00    -0.273 OA
ATOM      3  N   ASN A   5     111.208  53.413  91.046  0.00  0.00    -0.297 N 
ATOM      4  H   ASN A   5     110.444  52.714  90.952  0.00  0.00    +0.150 HD
ENDROOT
BRANCH   3   5
ATOM      5  CA  ASN A   5     111.122  54.685  90.305  0.00  0.00    +0.158 C 
BRANCH   5   6
ATOM      6  C   ASN A   5     110.953  55.922  91.254  0.00  0.00    +0.241 C 
ATOM      7  N   GLU A   6     110.660  55.678  92.534  0.00  0.00    -0.297 N 
ATOM      8  H   GLU A   6     110.583  54.687  92.841  0.00  0.00    +0.150 HD
ATOM      9  O   ASN A   5     111.071  57.078  90.812  0.00  0.00    -0.273 OA
BRANCH   7  10
ATOM     10  CA  GLU A   6     110.440  56.736  93.535  0.00  0.00    +0.149 C 
BRANCH  10  11
ATOM     11  C   GLU A   6     111.631  56.889  94.512  0.00  0.00    +0.241 C 
ATOM     12  O   GLU A   6     111.669  57.861  95.304  0.00  0.00    -0.273 OA
ATOM     13  N   LEU A   7     112.596  55.956  94.482  0.00  0.00    -0.298 N 
ATOM     14  H   LEU A   7     112.539  55.184  93.788  0.00  0.00    +0.150 HD
BRANCH  13  15
ATOM     15  CA  LEU A   7     113.735  56.007  95.416  0.00  0.00    +0.137 C 
BRANCH  15  16
ATOM     16  C   LEU A   7     114.556  57.307  95.355  0.00  0.00    +0.227 C 
ATOM     17  O   LEU A   7     114.909  57.867  96.395  0.00  0.00    -0.286 OA
ENDBRANCH  15  16
BRANCH  15  18
ATOM     18  CB  LEU A   7     114.666  54.804  95.219  0.00  0.00    +0.028 C 
BRANCH  18  19
ATOM     19  CG  LEU A   7     114.101  53.465  95.682  0.00  0.00    +0.002 C 
ATOM     20  CD2 LEU A   7     113.861  53.432  97.183  0.00  0.00    +0.000 C 
ATOM     21  CD1 LEU A   7     115.075  52.310  95.237  0.00  0.00    +0.000 C 
ENDBRANCH  18  19
ENDBRANCH  15  18
ENDBRANCH  13  15
ENDBRANCH  10  11
BRANCH  10  22
ATOM     22  CB  GLU A   6     109.141  56.487  94.341  0.00  0.00    +0.041 C 
BRANCH  22  23
ATOM     23  CG  GLU A   6     107.839  56.506  93.520  0.00  0.00    +0.116 C 
BRANCH  23  24
ATOM     24  CD  GLU A   6     107.728  55.332  92.594  0.00  0.00    +0.365 C 
ATOM     25  OE2 GLU A   6     107.959  54.205  93.050  0.00  0.00    -0.246 OA
ATOM     26  OE1 GLU A   6     107.431  55.504  91.404  0.00  0.00    -0.246 OA
ENDBRANCH  23  24
ENDBRANCH  22  23
ENDBRANCH  10  22
ENDBRANCH   7  10
ENDBRANCH   5   6
BRANCH   5  27
ATOM     27  CB  ASN A   5     109.916  54.702  89.366  0.00  0.00    +0.114 C 
BRANCH  27  28
ATOM     28  CG  ASN A   5     110.024  53.766  88.163  0.00  0.00    +0.222 C 
ATOM     29  OD1 ASN A   5     111.062  53.158  87.868  0.00  0.00    -0.275 OA
ATOM     30  ND2 ASN A   5     108.899  53.687  87.421  0.00  0.00    -0.329 N 
ATOM     31 HD21 ASN A   5     108.050  54.215  87.706  0.00  0.00    +0.145 HD
ATOM     32 HD22 ASN A   5     108.882  53.098  86.564  0.00  0.00    +0.145 HD
ENDBRANCH  27  28
ENDBRANCH   5  27
ENDBRANCH   3   5
BRANCH   1  33
ATOM     33  CA  SER A   4     112.256  51.804  92.552  0.00  0.00    +0.178 C 
BRANCH  33  36
ATOM     34  C   GLY A   3     110.302  52.127  93.977  0.00  0.00    +0.243 C 
ATOM     35  O   GLY A   3     110.674  53.234  94.333  0.00  0.00    -0.273 OA
ATOM     36  N   SER A   4     110.958  51.387  93.069  0.00  0.00    -0.295 N 
ATOM     37  H   SER A   4     110.533  50.501  92.728  0.00  0.00    +0.150 HD
BRANCH  34  38
ATOM     38  CA  GLY A   3     109.009  51.527  94.527  0.00  0.00    +0.176 C 
BRANCH  38  41
ATOM     39  C   PRO A   2     107.505  52.037  96.418  0.00  0.00    +0.241 C 
ATOM     40  O   PRO A   2     107.007  50.912  96.423  0.00  0.00    -0.273 OA
ATOM     41  N   GLY A   3     108.412  52.439  95.520  0.00  0.00    -0.295 N 
ATOM     42  H   GLY A   3     108.708  53.436  95.523  0.00  0.00    +0.150 HD
BRANCH  39  48
ATOM     43  C   ASN A   1     104.672  53.174  97.783  0.00  0.00    +0.242 C 
ATOM     44  N   PRO A   2     105.882  52.821  98.230  0.00  0.00    -0.272 N 
ATOM     45  CD  PRO A   2     106.159  52.195  99.536  0.00  0.00    +0.094 C 
ATOM     46  CG  PRO A   2     107.664  52.008  99.524  0.00  0.00    +0.024 C 
ATOM     47  CB  PRO A   2     108.184  53.045  98.597  0.00  0.00    +0.031 C 
ATOM     48  CA  PRO A   2     107.132  53.081  97.489  0.00  0.00    +0.152 C 
ATOM     49  O   ASN A   1     104.482  53.584  96.635  0.00  0.00    -0.273 OA
BRANCH  43  50
ATOM     50  CA  ASN A   1     103.485  53.148  98.771  0.00  0.00    +0.154 C 
BRANCH  50  51
ATOM     51  N   ASN A   1     103.006  54.557  98.836  0.00  0.00    -0.238 NA
ATOM     52  H   ASN A   1     102.888  55.062  97.935  0.00  0.00    +0.142 HD
ENDBRANCH  50  51
BRANCH  50  53
ATOM     53  CB  ASN A   1     102.374  52.198  98.329  0.00  0.00    +0.111 C 
BRANCH  53  54
ATOM     54  CG  ASN A   1     102.830  50.758  98.291  0.00  0.00    +0.221 C 
ATOM     55  ND2 ASN A   1     102.766  50.100  99.450  0.00  0.00    -0.329 N 
ATOM     56 HD21 ASN A   1     102.380  50.570 100.294  0.00  0.00    +0.145 HD
ATOM     57 HD22 ASN A   1     103.102  49.118  99.509  0.00  0.00    +0.145 HD
ATOM     58  OD1 ASN A   1     103.283  50.243  97.250  0.00  0.00    -0.275 OA
ENDBRANCH  53  54
ENDBRANCH  50  53
ENDBRANCH  43  50
ENDBRANCH  39  48
ENDBRANCH  38  41
ENDBRANCH  34  38
ENDBRANCH  33  36
BRANCH  33  59
ATOM     59  CB  SER A   4     112.858  50.695  91.650  0.00  0.00    +0.166 C 
BRANCH  59  60
ATOM     60  OG  SER A   4     112.021  50.377  90.561  0.00  0.00    -0.380 OA
ATOM     61  H   SER A   4     111.884  51.184  90.005  0.00  0.00    +0.211 HD
ENDBRANCH  59  60
ENDBRANCH  33  59
ENDBRANCH   1  33
TORSDOF 24
REMARK  Name = ../refined-set-2016/3fzn/3fzn_pocket.pdb
REMARK  268 active torsions:
REMARK  status: ('A' for Active; 'I' for Inactive)
REMARK    1  A    between atoms: _1  and  _3
REMARK    2  A    between atoms: _3  and  _4
REMARK    3  A    between atoms: _6  and  _8
REMARK    4  A    between atoms: _8  and  _9
REMARK    5  A    between atoms: _8  and  _11
REMARK    6  A    between atoms: _11  and  _12
REMARK    7  A    between atoms: _17  and  _19
REMARK    8  A    between atoms: _19  and  _20
REMARK    9  A    between atoms: _19  and  _22
REMARK   10  A    between atoms: _22  and  _23
REMARK   11  A    between atoms: _25  and  _27
REMARK   12  A    between atoms: _27  and  _28
REMARK   13  A    between atoms: _27  and  _30
REMARK   14  A    between atoms: _30  and  _31
REMARK   15  A    between atoms: _36  and  _38
REMARK   16  A    between atoms: _38  and  _39
REMARK   17  A    between atoms: _38  and  _41
REMARK   18  A    between atoms: _41  and  _42
REMARK   19  A    between atoms: _42  and  _43
REMARK   20  A    between atoms: _49  and  _50
REMARK   21  A    between atoms: _55  and  _57
REMARK   22  A    between atoms: _57  and  _58
REMARK   23  A    between atoms: _57  and  _60
REMARK   24  A    between atoms: _60  and  _61
REMARK   25  A    between atoms: _66  and  _68
REMARK   26  A    between atoms: _68  and  _69
REMARK   27  A    between atoms: _68  and  _71
REMARK   28  A    between atoms: _71  and  _72
REMARK   29  A    between atoms: _72  and  _73
REMARK   30  A    between atoms: _76  and  _78
REMARK   31  A    between atoms: _78  and  _79
REMARK   32  A    between atoms: _78  and  _81
REMARK   33  A    between atoms: _81  and  _82
REMARK   34  A    between atoms: _84  and  _86
REMARK   35  A    between atoms: _86  and  _87
REMARK   36  A    between atoms: _86  and  _89
REMARK   37  A    between atoms: _89  and  _90
REMARK   38  A    between atoms: _93  and  _95
REMARK   39  A    between atoms: _95  and  _96
REMARK   40  A    between atoms: _95  and  _98
REMARK   41  A    between atoms: _98  and  _99
REMARK   42  A    between atoms: _101  and  _103
REMARK   43  A    between atoms: _103  and  _104
REMARK   44  A    between atoms: _103  and  _106
REMARK   45  A    between atoms: _106  and  _107
REMARK   46  A    between atoms: _110  and  _112
REMARK   47  A    between atoms: _112  and  _113
REMARK   48  A    between atoms: _112  and  _115
REMARK   49  A    between atoms: _115  and  _116
REMARK   50  A    between atoms: _119  and  _121
REMARK   51  A    between atoms: _121  and  _122
REMARK   52  A    between atoms: _121  and  _124
REMARK   53  A    between atoms: _124  and  _125
REMARK   54  A    between atoms: _131  and  _133
REMARK   55  A    between atoms: _133  and  _134
REMARK   56  A    between atoms: _133  and  _136
REMARK   57  A    between atoms: _138  and  _140
REMARK   58  A    between atoms: _140  and  _141
REMARK   59  A    between atoms: _144  and  _146
REMARK   60  A    between atoms: _146  and  _147
REMARK   61  A    between atoms: _149  and  _151
REMARK   62  A    between atoms: _151  and  _152
REMARK   63  A    between atoms: _154  and  _156
REMARK   64  A    between atoms: _156  and  _157
REMARK   65  A    between atoms: _156  and  _159
REMARK   66  A    between atoms: _159  and  _160
REMARK   67  A    between atoms: _163  and  _165
REMARK   68  A    between atoms: _165  and  _166
REMARK   69  A    between atoms: _168  and  _170
REMARK   70  A    between atoms: _170  and  _171
REMARK   71  A    between atoms: _170  and  _173
REMARK   72  A    between atoms: _173  and  _174
REMARK   73  A    between atoms: _180  and  _182
REMARK   74  A    between atoms: _182  and  _183
REMARK   75  A    between atoms: _182  and  _185
REMARK   76  A    between atoms: _188  and  _190
REMARK   77  A    between atoms: _190  and  _191
REMARK   78  A    between atoms: _190  and  _193
REMARK   79  A    between atoms: _193  and  _194
REMARK   80  A    between atoms: _197  and  _199
REMARK   81  A    between atoms: _199  and  _200
REMARK   82  A    between atoms: _202  and  _204
REMARK   83  A    between atoms: _204  and  _205
REMARK   84  A    between atoms: _204  and  _207
REMARK   85  A    between atoms: _207  and  _208
REMARK   86  A    between atoms: _208  and  _209
REMARK   87  A    between atoms: _209  and  MG_664
REMARK   88  A    between atoms: _211  and  _213
REMARK   89  A    between atoms: _213  and  _214
REMARK   90  A    between atoms: _216  and  _218
REMARK   91  A    between atoms: _218  and  _219
REMARK   92  A    between atoms: _218  and  _221
REMARK   93  A    between atoms: _221  and  _222
REMARK   94  A    between atoms: _224  and  _226
REMARK   95  A    between atoms: _226  and  _227
REMARK   96  A    between atoms: _230  and  _232
REMARK   97  A    between atoms: _232  and  _233
REMARK   98  A    between atoms: _232  and  _235
REMARK   99  A    between atoms: _235  and  _236
REMARK  100  A    between atoms: _241  and  _243
REMARK  101  A    between atoms: _243  and  _244
REMARK  102  A    between atoms: _243  and  _246
REMARK  103  A    between atoms: _246  and  _247
REMARK  104  A    between atoms: _252  and  _253
REMARK  105  A    between atoms: _255  and  _257
REMARK  106  A    between atoms: _257  and  _258
REMARK  107  A    between atoms: _257  and  _260
REMARK  108  A    between atoms: _260  and  _261
REMARK  109  A    between atoms: _264  and  _266
REMARK  110  A    between atoms: _266  and  _267
REMARK  111  A    between atoms: _266  and  _269
REMARK  112  A    between atoms: _269  and  _270
REMARK  113  A    between atoms: _270  and  _271
REMARK  114  A    between atoms: _273  and  _275
REMARK  115  A    between atoms: _275  and  _276
REMARK  116  A    between atoms: _275  and  _278
REMARK  117  A    between atoms: _278  and  _279
REMARK  118  A    between atoms: _284  and  _286
REMARK  119  A    between atoms: _286  and  _287
REMARK  120  A    between atoms: _286  and  _289
REMARK  121  A    between atoms: _289  and  _290
REMARK  122  A    between atoms: _290  and  _291
REMARK  123  A    between atoms: _290  and  _292
REMARK  124  A    between atoms: _291  and  MG_664
REMARK  125  A    between atoms: _295  and  _297
REMARK  126  A    between atoms: _297  and  _298
REMARK  127  A    between atoms: _300  and  _302
REMARK  128  A    between atoms: _302  and  _303
REMARK  129  A    between atoms: _302  and  _305
REMARK  130  A    between atoms: _305  and  _306
REMARK  131  A    between atoms: _309  and  _311
REMARK  132  A    between atoms: _311  and  _312
REMARK  133  A    between atoms: _311  and  _314
REMARK  134  A    between atoms: _314  and  _315
REMARK  135  A    between atoms: _320  and  _321
REMARK  136  A    between atoms: _323  and  _325
REMARK  137  A    between atoms: _325  and  _326
REMARK  138  A    between atoms: _328  and  _330
REMARK  139  A    between atoms: _330  and  _331
REMARK  140  A    between atoms: _334  and  _336
REMARK  141  A    between atoms: _336  and  _337
REMARK  142  A    between atoms: _336  and  _339
REMARK  143  A    between atoms: _339  and  _340
REMARK  144  A    between atoms: _343  and  _345
REMARK  145  A    between atoms: _345  and  _346
REMARK  146  A    between atoms: _345  and  _348
REMARK  147  A    between atoms: _348  and  _349
REMARK  148  A    between atoms: _349  and  _350
REMARK  149  A    between atoms: _350  and  _351
REMARK  150  A    between atoms: _360  and  _362
REMARK  151  A    between atoms: _362  and  _363
REMARK  152  A    between atoms: _362  and  _365
REMARK  153  A    between atoms: _365  and  _366
REMARK  154  A    between atoms: _376  and  _378
REMARK  155  A    between atoms: _378  and  _379
REMARK  156  A    between atoms: _378  and  _381
REMARK  157  A    between atoms: _381  and  _382
REMARK  158  A    between atoms: _388  and  _390
REMARK  159  A    between atoms: _390  and  _391
REMARK  160  A    between atoms: _394  and  _396
REMARK  161  A    between atoms: _396  and  _397
REMARK  162  A    between atoms: _399  and  _401
REMARK  163  A    between atoms: _401  and  _402
REMARK  164  A    between atoms: _401  and  _404
REMARK  165  A    between atoms: _404  and  _405
REMARK  166  A    between atoms: _408  and  _410
REMARK  167  A    between atoms: _410  and  _411
REMARK  168  A    between atoms: _410  and  _413
REMARK  169  A    between atoms: _416  and  _418
REMARK  170  A    between atoms: _418  and  _419
REMARK  171  A    between atoms: _418  and  _421
REMARK  172  A    between atoms: _421  and  _422
REMARK  173  A    between atoms: _428  and  _430
REMARK  174  A    between atoms: _430  and  _431
REMARK  175  A    between atoms: _430  and  _433
REMARK  176  A    between atoms: _433  and  _434
REMARK  177  A    between atoms: _437  and  _439
REMARK  178  A    between atoms: _439  and  _440
REMARK  179  A    between atoms: _439  and  _442
REMARK  180  A    between atoms: _445  and  _447
REMARK  181  A    between atoms: _447  and  _448
REMARK  182  A    between atoms: _447  and  _450
REMARK  183  A    between atoms: _450  and  _451
REMARK  184  A    between atoms: _457  and  _458
REMARK  185  A    between atoms: _463  and  _465
REMARK  186  A    between atoms: _465  and  _466
REMARK  187  A    between atoms: _468  and  _470
REMARK  188  A    between atoms: _470  and  _471
REMARK  189  A    between atoms: _470  and  _473
REMARK  190  A    between atoms: _473  and  _474
REMARK  191  A    between atoms: _476  and  _478
REMARK  192  A    between atoms: _478  and  _479
REMARK  193  A    between atoms: _478  and  _481
REMARK  194  A    between atoms: _481  and  _482
REMARK  195  A    between atoms: _487  and  _489
REMARK  196  A    between atoms: _489  and  _490
REMARK  197  A    between atoms: _489  and  _492
REMARK  198  A    between atoms: _492  and  _493
REMARK  199  A    between atoms: _493  and  _494
REMARK  200  A    between atoms: _497  and  _499
REMARK  201  A    between atoms: _499  and  _500
REMARK  202  A    between atoms: _499  and  _502
REMARK  203  A    between atoms: _502  and  _503
REMARK  204  A    between atoms: _506  and  _508
REMARK  205  A    between atoms: _508  and  _509
REMARK  206  A    between atoms: _508  and  _511
REMARK  207  A    between atoms: _511  and  _512
REMARK  208  A    between atoms: _515  and  _517
REMARK  209  A    between atoms: _517  and  _518
REMARK  210  A    between atoms: _521  and  _523
REMARK  211  A    between atoms: _523  and  _524
REMARK  212  A    between atoms: _523  and  _526
REMARK  213  A    between atoms: _526  and  _527
REMARK  214  A    between atoms: _530  and  _532
REMARK  215  A    between atoms: _532  and  _533
REMARK  216  A    between atoms: _532  and  _535
REMARK  217  A    between atoms: _535  and  _536
REMARK  218  A    between atoms: _536  and  _537
REMARK  219  A    between atoms: _542  and  _544
REMARK  220  A    between atoms: _544  and  _545
REMARK  221  A    between atoms: _544  and  _547
REMARK  222  A    between atoms: _547  and  _548
REMARK  223  A    between atoms: _548  and  _549
REMARK  224  A    between atoms: _552  and  _554
REMARK  225  A    between atoms: _554  and  _555
REMARK  226  A    between atoms: _558  and  _560
REMARK  227  A    between atoms: _560  and  _561
REMARK  228  A    between atoms: _560  and  _563
REMARK  229  A    between atoms: _563  and  _564
REMARK  230  A    between atoms: _567  and  _569
REMARK  231  A    between atoms: _569  and  _570
REMARK  232  A    between atoms: _569  and  _572
REMARK  233  A    between atoms: _572  and  _573
REMARK  234  A    between atoms: _578  and  _580
REMARK  235  A    between atoms: _580  and  _581
REMARK  236  A    between atoms: _580  and  _583
REMARK  237  A    between atoms: _583  and  _584
REMARK  238  A    between atoms: _586  and  _588
REMARK  239  A    between atoms: _588  and  _589
REMARK  240  A    between atoms: _592  and  _594
REMARK  241  A    between atoms: _594  and  _595
REMARK  242  A    between atoms: _598  and  _600
REMARK  243  A    between atoms: _600  and  _601
REMARK  244  A    between atoms: _603  and  _605
REMARK  245  A    between atoms: _605  and  _606
REMARK  246  A    between atoms: _605  and  _608
REMARK  247  A    between atoms: _608  and  _609
REMARK  248  A    between atoms: _612  and  _614
REMARK  249  A    between atoms: _614  and  _615
REMARK  250  A    between atoms: _617  and  _619
REMARK  251  A    between atoms: _619  and  _620
REMARK  252  A    between atoms: _619  and  _622
REMARK  253  A    between atoms: _622  and  _623
REMARK  254  A    between atoms: _628  and  _630
REMARK  255  A    between atoms: _630  and  _631
REMARK  256  A    between atoms: _634  and  _636
REMARK  257  A    between atoms: _636  and  _637
REMARK  258  A    between atoms: _636  and  _639
REMARK  259  A    between atoms: _639  and  _640
REMARK  260  A    between atoms: _640  and  _641
REMARK  261  A    between atoms: _646  and  _648
REMARK  262  A    between atoms: _648  and  _649
REMARK  263  A    between atoms: _648  and  _651
REMARK  264  A    between atoms: _651  and  _652
REMARK  265  A    between atoms: _655  and  _657
REMARK  266  A    between atoms: _657  and  _658
REMARK  267  A    between atoms: _657  and  _660
REMARK  268  A    between atoms: _660  and  _661
REMARK                            x       y       z     vdW  Elec       q    Type
REMARK                         _______ _______ _______ _____ _____    ______ ____
ROOT
ATOM      1  C   LEU A   3      99.372  48.463 100.577  0.00  0.00    +0.241 C 
ATOM      2  N   GLN A   4      98.438  49.313 100.135  0.00  0.00    -0.297 N 
ATOM      3  H   GLN A   4      98.103  50.061 100.775  0.00  0.00    +0.150 HD
ATOM      4  O   LEU A   3      99.750  47.486  99.887  0.00  0.00    -0.273 OA
ENDROOT
BRANCH   2   5
ATOM      5  CA  GLN A   4      97.860  49.234  98.772  0.00  0.00    +0.149 C 
BRANCH   5   6
ATOM      6  C   GLN A   4      97.399  50.616  98.414  0.00  0.00    +0.241 C 
ATOM      7  O   GLN A   4      97.081  51.442  99.297  0.00  0.00    -0.273 OA
ATOM      8  N   GLU A   5      97.409  50.934  97.128  0.00  0.00    -0.297 N 
ATOM      9  H   GLU A   5      97.526  50.193  96.408  0.00  0.00    +0.150 HD
BRANCH   8  10
ATOM     10  CA  GLU A   5      97.255  52.329  96.727  0.00  0.00    +0.149 C 
BRANCH  10  11
ATOM     11  C   GLU A   5      95.827  52.939  96.852  0.00  0.00    +0.241 C 
ATOM     12  O   GLU A   5      95.683  54.157  97.072  0.00  0.00    -0.273 OA
ATOM     13  N   ALA A   6      94.785  52.108  96.788  0.00  0.00    -0.298 N 
ATOM     14  H   ALA A   6      94.923  51.127  96.472  0.00  0.00    +0.150 HD
BRANCH  13  15
ATOM     15  CA  ALA A   6      93.428  52.580  97.166  0.00  0.00    +0.137 C 
ATOM     16  CB  ALA A   6      92.417  51.447  96.988  0.00  0.00    +0.030 C 
BRANCH  15  17
ATOM     17  C   ALA A   6      93.382  53.153  98.597  0.00  0.00    +0.227 C 
ATOM     18  O   ALA A   6      92.735  54.189  98.871  0.00  0.00    -0.286 OA
ENDBRANCH  15  17
ENDBRANCH  13  15
ENDBRANCH  10  11
BRANCH  10  19
ATOM     19  CB  GLU A   5      97.836  52.514  95.321  0.00  0.00    +0.041 C 
BRANCH  19  20
ATOM     20  CG  GLU A   5      99.403  52.293  95.258  0.00  0.00    +0.116 C 
BRANCH  20  21
ATOM     21  CD  GLU A   5      99.839  50.845  95.072  0.00  0.00    +0.365 C 
ATOM     22  OE2 GLU A   5      98.972  49.948  95.083  0.00  0.00    -0.246 OA
ATOM     23  OE1 GLU A   5     101.082  50.628  94.936  0.00  0.00    -0.246 OA
ENDBRANCH  20  21
ENDBRANCH  19  20
ENDBRANCH  10  19
ENDBRANCH   8  10
ENDBRANCH   5   6
BRANCH   5  24
ATOM     24  CB  GLN A   4      96.703  48.194  98.636  0.00  0.00    +0.039 C 
BRANCH  24  25
ATOM     25  CG  GLN A   4      96.443  47.657  97.167  0.00  0.00    +0.087 C 
BRANCH  25  26
ATOM     26  CD  GLN A   4      95.188  48.190  96.470  0.00  0.00    +0.219 C 
ATOM     27  OE1 GLN A   4      94.592  49.162  96.906  0.00  0.00    -0.275 OA
ATOM     28  NE2 GLN A   4      94.805  47.541  95.350  0.00  0.00    -0.329 N 
ATOM     29 HE21 GLN A   4      95.344  46.717  95.016  0.00  0.00    +0.145 HD
ATOM     30 HE22 GLN A   4      93.971  47.865  94.821  0.00  0.00    +0.145 HD
ENDBRANCH  25  26
ENDBRANCH  24  25
ENDBRANCH   5  24
ENDBRANCH   2   5
BRANCH   1  31
ATOM     31  CA  LEU A   3      99.916  48.658 101.995  0.00  0.00    +0.149 C 
BRANCH  31  33
ATOM     32  C   ALA A   2     100.162  51.069 102.476  0.00  0.00    +0.241 C 
ATOM     33  N   LEU A   3      99.522  49.924 102.662  0.00  0.00    -0.297 N 
ATOM     34  H   LEU A   3      98.705  49.912 103.306  0.00  0.00    +0.150 HD
ATOM     35  O   ALA A   2     100.961  51.250 101.559  0.00  0.00    -0.273 OA
BRANCH  32  36
ATOM     36  CA  ALA A   2      99.818  52.227 103.446  0.00  0.00    +0.149 C 
ATOM     37  CB  ALA A   2      98.528  52.930 103.034  0.00  0.00    +0.031 C 
BRANCH  36  40
ATOM     38  C   LEU A   1     101.483  53.588 104.623  0.00  0.00    +0.238 C 
ATOM     39  O   LEU A   1     100.983  53.428 105.732  0.00  0.00    -0.274 OA
ATOM     40  N   ALA A   2     100.935  53.159 103.491  0.00  0.00    -0.297 N 
ATOM     41  H   ALA A   2     101.324  53.507 102.591  0.00  0.00    +0.150 HD
BRANCH  38  42
ATOM     42  CA  LEU A   1     102.815  54.300 104.492  0.00  0.00    +0.145 C 
BRANCH  42  43
ATOM     43  N   LEU A   1     102.846  55.504 105.354  0.00  0.00    -0.238 NA
ATOM     44  H   LEU A   1     103.227  55.409 106.317  0.00  0.00    +0.142 HD
ENDBRANCH  42  43
BRANCH  42  45
ATOM     45  CB  LEU A   1     103.905  53.260 104.874  0.00  0.00    +0.026 C 
BRANCH  45  46
ATOM     46  CG  LEU A   1     103.962  51.900 104.116  0.00  0.00    +0.002 C 
ATOM     47  CD2 LEU A   1     104.979  50.935 104.766  0.00  0.00    +0.000 C 
ATOM     48  CD1 LEU A   1     104.292  52.086 102.634  0.00  0.00    +0.000 C 
ENDBRANCH  45  46
ENDBRANCH  42  45
ENDBRANCH  38  42
ENDBRANCH  36  40
ENDBRANCH  32  36
ENDBRANCH  31  33
BRANCH  31  49
ATOM     49  CB  LEU A   3      99.501  47.471 102.866  0.00  0.00    +0.029 C 
BRANCH  49  50
ATOM     50  CG  LEU A   3     100.126  47.444 104.270  0.00  0.00    +0.002 C 
ATOM     51  CD2 LEU A   3      99.576  46.264 105.114  0.00  0.00    +0.000 C 
ATOM     52  CD1 LEU A   3     101.646  47.475 104.275  0.00  0.00    +0.000 C 
ENDBRANCH  49  50
ENDBRANCH  31  49
ENDBRANCH   1  31
TORSDOF 22
REMARK  Name = ../refined-set-2016/3fzn/3fzn_pocket.pdb
REMARK  268 active torsions:
REMARK  status: ('A' for Active; 'I' for Inactive)
REMARK    1  A    between atoms: _1  and  _3
REMARK    2  A    between atoms: _3  and  _4
REMARK    3  A    between atoms: _6  and  _8
REMARK    4  A    between atoms: _8  and  _9
REMARK    5  A    between atoms: _8  and  _11
REMARK    6  A    between atoms: _11  and  _12
REMARK    7  A    between atoms: _17  and  _19
REMARK    8  A    between atoms: _19  and  _20
REMARK    9  A    between atoms: _19  and  _22
REMARK   10  A    between atoms: _22  and  _23
REMARK   11  A    between atoms: _25  and  _27
REMARK   12  A    between atoms: _27  and  _28
REMARK   13  A    between atoms: _27  and  _30
REMARK   14  A    between atoms: _30  and  _31
REMARK   15  A    between atoms: _36  and  _38
REMARK   16  A    between atoms: _38  and  _39
REMARK   17  A    between atoms: _38  and  _41
REMARK   18  A    between atoms: _41  and  _42
REMARK   19  A    between atoms: _42  and  _43
REMARK   20  A    between atoms: _49  and  _50
REMARK   21  A    between atoms: _55  and  _57
REMARK   22  A    between atoms: _57  and  _58
REMARK   23  A    between atoms: _57  and  _60
REMARK   24  A    between atoms: _60  and  _61
REMARK   25  A    between atoms: _66  and  _68
REMARK   26  A    between atoms: _68  and  _69
REMARK   27  A    between atoms: _68  and  _71
REMARK   28  A    between atoms: _71  and  _72
REMARK   29  A    between atoms: _72  and  _73
REMARK   30  A    between atoms: _76  and  _78
REMARK   31  A    between atoms: _78  and  _79
REMARK   32  A    between atoms: _78  and  _81
REMARK   33  A    between atoms: _81  and  _82
REMARK   34  A    between atoms: _84  and  _86
REMARK   35  A    between atoms: _86  and  _87
REMARK   36  A    between atoms: _86  and  _89
REMARK   37  A    between atoms: _89  and  _90
REMARK   38  A    between atoms: _93  and  _95
REMARK   39  A    between atoms: _95  and  _96
REMARK   40  A    between atoms: _95  and  _98
REMARK   41  A    between atoms: _98  and  _99
REMARK   42  A    between atoms: _101  and  _103
REMARK   43  A    between atoms: _103  and  _104
REMARK   44  A    between atoms: _103  and  _106
REMARK   45  A    between atoms: _106  and  _107
REMARK   46  A    between atoms: _110  and  _112
REMARK   47  A    between atoms: _112  and  _113
REMARK   48  A    between atoms: _112  and  _115
REMARK   49  A    between atoms: _115  and  _116
REMARK   50  A    between atoms: _119  and  _121
REMARK   51  A    between atoms: _121  and  _122
REMARK   52  A    between atoms: _121  and  _124
REMARK   53  A    between atoms: _124  and  _125
REMARK   54  A    between atoms: _131  and  _133
REMARK   55  A    between atoms: _133  and  _134
REMARK   56  A    between atoms: _133  and  _136
REMARK   57  A    between atoms: _138  and  _140
REMARK   58  A    between atoms: _140  and  _141
REMARK   59  A    between atoms: _144  and  _146
REMARK   60  A    between atoms: _146  and  _147
REMARK   61  A    between atoms: _149  and  _151
REMARK   62  A    between atoms: _151  and  _152
REMARK   63  A    between atoms: _154  and  _156
REMARK   64  A    between atoms: _156  and  _157
REMARK   65  A    between atoms: _156  and  _159
REMARK   66  A    between atoms: _159  and  _160
REMARK   67  A    between atoms: _163  and  _165
REMARK   68  A    between atoms: _165  and  _166
REMARK   69  A    between atoms: _168  and  _170
REMARK   70  A    between atoms: _170  and  _171
REMARK   71  A    between atoms: _170  and  _173
REMARK   72  A    between atoms: _173  and  _174
REMARK   73  A    between atoms: _180  and  _182
REMARK   74  A    between atoms: _182  and  _183
REMARK   75  A    between atoms: _182  and  _185
REMARK   76  A    between atoms: _188  and  _190
REMARK   77  A    between atoms: _190  and  _191
REMARK   78  A    between atoms: _190  and  _193
REMARK   79  A    between atoms: _193  and  _194
REMARK   80  A    between atoms: _197  and  _199
REMARK   81  A    between atoms: _199  and  _200
REMARK   82  A    between atoms: _202  and  _204
REMARK   83  A    between atoms: _204  and  _205
REMARK   84  A    between atoms: _204  and  _207
REMARK   85  A    between atoms: _207  and  _208
REMARK   86  A    between atoms: _208  and  _209
REMARK   87  A    between atoms: _209  and  MG_664
REMARK   88  A    between atoms: _211  and  _213
REMARK   89  A    between atoms: _213  and  _214
REMARK   90  A    between atoms: _216  and  _218
REMARK   91  A    between atoms: _218  and  _219
REMARK   92  A    between atoms: _218  and  _221
REMARK   93  A    between atoms: _221  and  _222
REMARK   94  A    between atoms: _224  and  _226
REMARK   95  A    between atoms: _226  and  _227
REMARK   96  A    between atoms: _230  and  _232
REMARK   97  A    between atoms: _232  and  _233
REMARK   98  A    between atoms: _232  and  _235
REMARK   99  A    between atoms: _235  and  _236
REMARK  100  A    between atoms: _241  and  _243
REMARK  101  A    between atoms: _243  and  _244
REMARK  102  A    between atoms: _243  and  _246
REMARK  103  A    between atoms: _246  and  _247
REMARK  104  A    between atoms: _252  and  _253
REMARK  105  A    between atoms: _255  and  _257
REMARK  106  A    between atoms: _257  and  _258
REMARK  107  A    between atoms: _257  and  _260
REMARK  108  A    between atoms: _260  and  _261
REMARK  109  A    between atoms: _264  and  _266
REMARK  110  A    between atoms: _266  and  _267
REMARK  111  A    between atoms: _266  and  _269
REMARK  112  A    between atoms: _269  and  _270
REMARK  113  A    between atoms: _270  and  _271
REMARK  114  A    between atoms: _273  and  _275
REMARK  115  A    between atoms: _275  and  _276
REMARK  116  A    between atoms: _275  and  _278
REMARK  117  A    between atoms: _278  and  _279
REMARK  118  A    between atoms: _284  and  _286
REMARK  119  A    between atoms: _286  and  _287
REMARK  120  A    between atoms: _286  and  _289
REMARK  121  A    between atoms: _289  and  _290
REMARK  122  A    between atoms: _290  and  _291
REMARK  123  A    between atoms: _290  and  _292
REMARK  124  A    between atoms: _291  and  MG_664
REMARK  125  A    between atoms: _295  and  _297
REMARK  126  A    between atoms: _297  and  _298
REMARK  127  A    between atoms: _300  and  _302
REMARK  128  A    between atoms: _302  and  _303
REMARK  129  A    between atoms: _302  and  _305
REMARK  130  A    between atoms: _305  and  _306
REMARK  131  A    between atoms: _309  and  _311
REMARK  132  A    between atoms: _311  and  _312
REMARK  133  A    between atoms: _311  and  _314
REMARK  134  A    between atoms: _314  and  _315
REMARK  135  A    between atoms: _320  and  _321
REMARK  136  A    between atoms: _323  and  _325
REMARK  137  A    between atoms: _325  and  _326
REMARK  138  A    between atoms: _328  and  _330
REMARK  139  A    between atoms: _330  and  _331
REMARK  140  A    between atoms: _334  and  _336
REMARK  141  A    between atoms: _336  and  _337
REMARK  142  A    between atoms: _336  and  _339
REMARK  143  A    between atoms: _339  and  _340
REMARK  144  A    between atoms: _343  and  _345
REMARK  145  A    between atoms: _345  and  _346
REMARK  146  A    between atoms: _345  and  _348
REMARK  147  A    between atoms: _348  and  _349
REMARK  148  A    between atoms: _349  and  _350
REMARK  149  A    between atoms: _350  and  _351
REMARK  150  A    between atoms: _360  and  _362
REMARK  151  A    between atoms: _362  and  _363
REMARK  152  A    between atoms: _362  and  _365
REMARK  153  A    between atoms: _365  and  _366
REMARK  154  A    between atoms: _376  and  _378
REMARK  155  A    between atoms: _378  and  _379
REMARK  156  A    between atoms: _378  and  _381
REMARK  157  A    between atoms: _381  and  _382
REMARK  158  A    between atoms: _388  and  _390
REMARK  159  A    between atoms: _390  and  _391
REMARK  160  A    between atoms: _394  and  _396
REMARK  161  A    between atoms: _396  and  _397
REMARK  162  A    between atoms: _399  and  _401
REMARK  163  A    between atoms: _401  and  _402
REMARK  164  A    between atoms: _401  and  _404
REMARK  165  A    between atoms: _404  and  _405
REMARK  166  A    between atoms: _408  and  _410
REMARK  167  A    between atoms: _410  and  _411
REMARK  168  A    between atoms: _410  and  _413
REMARK  169  A    between atoms: _416  and  _418
REMARK  170  A    between atoms: _418  and  _419
REMARK  171  A    between atoms: _418  and  _421
REMARK  172  A    between atoms: _421  and  _422
REMARK  173  A    between atoms: _428  and  _430
REMARK  174  A    between atoms: _430  and  _431
REMARK  175  A    between atoms: _430  and  _433
REMARK  176  A    between atoms: _433  and  _434
REMARK  177  A    between atoms: _437  and  _439
REMARK  178  A    between atoms: _439  and  _440
REMARK  179  A    between atoms: _439  and  _442
REMARK  180  A    between atoms: _445  and  _447
REMARK  181  A    between atoms: _447  and  _448
REMARK  182  A    between atoms: _447  and  _450
REMARK  183  A    between atoms: _450  and  _451
REMARK  184  A    between atoms: _457  and  _458
REMARK  185  A    between atoms: _463  and  _465
REMARK  186  A    between atoms: _465  and  _466
REMARK  187  A    between atoms: _468  and  _470
REMARK  188  A    between atoms: _470  and  _471
REMARK  189  A    between atoms: _470  and  _473
REMARK  190  A    between atoms: _473  and  _474
REMARK  191  A    between atoms: _476  and  _478
REMARK  192  A    between atoms: _478  and  _479
REMARK  193  A    between atoms: _478  and  _481
REMARK  194  A    between atoms: _481  and  _482
REMARK  195  A    between atoms: _487  and  _489
REMARK  196  A    between atoms: _489  and  _490
REMARK  197  A    between atoms: _489  and  _492
REMARK  198  A    between atoms: _492  and  _493
REMARK  199  A    between atoms: _493  and  _494
REMARK  200  A    between atoms: _497  and  _499
REMARK  201  A    between atoms: _499  and  _500
REMARK  202  A    between atoms: _499  and  _502
REMARK  203  A    between atoms: _502  and  _503
REMARK  204  A    between atoms: _506  and  _508
REMARK  205  A    between atoms: _508  and  _509
REMARK  206  A    between atoms: _508  and  _511
REMARK  207  A    between atoms: _511  and  _512
REMARK  208  A    between atoms: _515  and  _517
REMARK  209  A    between atoms: _517  and  _518
REMARK  210  A    between atoms: _521  and  _523
REMARK  211  A    between atoms: _523  and  _524
REMARK  212  A    between atoms: _523  and  _526
REMARK  213  A    between atoms: _526  and  _527
REMARK  214  A    between atoms: _530  and  _532
REMARK  215  A    between atoms: _532  and  _533
REMARK  216  A    between atoms: _532  and  _535
REMARK  217  A    between atoms: _535  and  _536
REMARK  218  A    between atoms: _536  and  _537
REMARK  219  A    between atoms: _542  and  _544
REMARK  220  A    between atoms: _544  and  _545
REMARK  221  A    between atoms: _544  and  _547
REMARK  222  A    between atoms: _547  and  _548
REMARK  223  A    between atoms: _548  and  _549
REMARK  224  A    between atoms: _552  and  _554
REMARK  225  A    between atoms: _554  and  _555
REMARK  226  A    between atoms: _558  and  _560
REMARK  227  A    between atoms: _560  and  _561
REMARK  228  A    between atoms: _560  and  _563
REMARK  229  A    between atoms: _563  and  _564
REMARK  230  A    between atoms: _567  and  _569
REMARK  231  A    between atoms: _569  and  _570
REMARK  232  A    between atoms: _569  and  _572
REMARK  233  A    between atoms: _572  and  _573
REMARK  234  A    between atoms: _578  and  _580
REMARK  235  A    between atoms: _580  and  _581
REMARK  236  A    between atoms: _580  and  _583
REMARK  237  A    between atoms: _583  and  _584
REMARK  238  A    between atoms: _586  and  _588
REMARK  239  A    between atoms: _588  and  _589
REMARK  240  A    between atoms: _592  and  _594
REMARK  241  A    between atoms: _594  and  _595
REMARK  242  A    between atoms: _598  and  _600
REMARK  243  A    between atoms: _600  and  _601
REMARK  244  A    between atoms: _603  and  _605
REMARK  245  A    between atoms: _605  and  _606
REMARK  246  A    between atoms: _605  and  _608
REMARK  247  A    between atoms: _608  and  _609
REMARK  248  A    between atoms: _612  and  _614
REMARK  249  A    between atoms: _614  and  _615
REMARK  250  A    between atoms: _617  and  _619
REMARK  251  A    between atoms: _619  and  _620
REMARK  252  A    between atoms: _619  and  _622
REMARK  253  A    between atoms: _622  and  _623
REMARK  254  A    between atoms: _628  and  _630
REMARK  255  A    between atoms: _630  and  _631
REMARK  256  A    between atoms: _634  and  _636
REMARK  257  A    between atoms: _636  and  _637
REMARK  258  A    between atoms: _636  and  _639
REMARK  259  A    between atoms: _639  and  _640
REMARK  260  A    between atoms: _640  and  _641
REMARK  261  A    between atoms: _646  and  _648
REMARK  262  A    between atoms: _648  and  _649
REMARK  263  A    between atoms: _648  and  _651
REMARK  264  A    between atoms: _651  and  _652
REMARK  265  A    between atoms: _655  and  _657
REMARK  266  A    between atoms: _657  and  _658
REMARK  267  A    between atoms: _657  and  _660
REMARK  268  A    between atoms: _660  and  _661
REMARK                            x       y       z     vdW  Elec       q    Type
REMARK                         _______ _______ _______ _____ _____    ______ ____
ROOT
ATOM      1  CA  ALA A   5     100.630  49.667  88.575  0.00  0.00    +0.149 C 
ATOM      2  CB  ALA A   5     101.658  48.596  88.971  0.00  0.00    +0.031 C 
ENDROOT
BRANCH   1   4
ATOM      3  C   ALA A   4     100.505  51.627  87.129  0.00  0.00    +0.241 C 
ATOM      4  N   ALA A   5     101.236  50.661  87.658  0.00  0.00    -0.297 N 
ATOM      5  H   ALA A   5     102.248  50.598  87.428  0.00  0.00    +0.150 HD
ATOM      6  O   ALA A   4      99.293  51.743  87.362  0.00  0.00    -0.273 OA
BRANCH   3   7
ATOM      7  CA  ALA A   4     101.205  52.603  86.203  0.00  0.00    +0.149 C 
ATOM      8  CB  ALA A   4     101.192  52.080  84.759  0.00  0.00    +0.031 C 
BRANCH   7  11
ATOM      9  C   SER A   3     102.819  53.681  87.710  0.00  0.00    +0.243 C 
ATOM     10  O   SER A   3     101.905  54.160  88.417  0.00  0.00    -0.273 OA
ATOM     11  N   ALA A   4     102.575  52.919  86.635  0.00  0.00    -0.297 N 
ATOM     12  H   ALA A   4     103.377  52.541  86.091  0.00  0.00    +0.150 HD
BRANCH   9  13
ATOM     13  CA  SER A   3     104.300  54.026  88.008  0.00  0.00    +0.178 C 
BRANCH  13  16
ATOM     14  C   HIS A   2     104.140  53.369  90.379  0.00  0.00    +0.241 C 
ATOM     15  O   HIS A   2     103.395  52.423  90.152  0.00  0.00    -0.273 OA
ATOM     16  N   SER A   3     104.560  54.219  89.438  0.00  0.00    -0.295 N 
ATOM     17  H   SER A   3     105.098  55.059  89.734  0.00  0.00    +0.150 HD
BRANCH  14  18
ATOM     18  CA  HIS A   2     104.625  53.629  91.790  0.00  0.00    +0.155 C 
BRANCH  18  20
ATOM     19  C   LEU A   1     103.705  55.658  92.915  0.00  0.00    +0.238 C 
ATOM     20  N   HIS A   2     103.631  54.346  92.670  0.00  0.00    -0.297 N 
ATOM     21  H   HIS A   2     102.859  53.799  93.102  0.00  0.00    +0.150 HD
ATOM     22  O   LEU A   1     104.514  56.420  92.351  0.00  0.00    -0.274 OA
BRANCH  19  23
ATOM     23  CA  LEU A   1     102.670  56.221  93.909  0.00  0.00    +0.145 C 
BRANCH  23  24
ATOM     24  N   LEU A   1     102.965  57.588  94.374  0.00  0.00    -0.238 NA
ATOM     25  H   LEU A   1     102.995  58.341  93.657  0.00  0.00    +0.142 HD
ENDBRANCH  23  24
BRANCH  23  26
ATOM     26  CB  LEU A   1     101.283  56.169  93.242  0.00  0.00    +0.026 C 
BRANCH  26  27
ATOM     27  CG  LEU A   1     100.080  56.773  93.965  0.00  0.00    +0.002 C 
ATOM     28  CD2 LEU A   1      99.910  56.097  95.342  0.00  0.00    +0.000 C 
ATOM     29  CD1 LEU A   1      98.791  56.647  93.134  0.00  0.00    +0.000 C 
ENDBRANCH  26  27
ENDBRANCH  23  26
ENDBRANCH  19  23
ENDBRANCH  18  20
BRANCH  18  30
ATOM     30  CB  HIS A   2     105.061  52.290  92.411  0.00  0.00    +0.076 C 
BRANCH  30  31
ATOM     31  CG  HIS A   2     106.218  51.642  91.686  0.00  0.00    +0.082 A 
ATOM     32  CD2 HIS A   2     107.471  52.100  91.442  0.00  0.00    +0.115 A 
ATOM     33  NE2 HIS A   2     108.144  51.113  90.765  0.00  0.00    -0.221 NA
ATOM     34  CE1 HIS A   2     107.329  50.092  90.577  0.00  0.00    +0.199 A 
ATOM     35  ND1 HIS A   2     106.158  50.386  91.124  0.00  0.00    -0.227 NA
ENDBRANCH  30  31
ENDBRANCH  18  30
ENDBRANCH  14  18
ENDBRANCH  13  16
BRANCH  13  36
ATOM     36  CB  SER A   3     105.256  52.971  87.444  0.00  0.00    +0.166 C 
BRANCH  36  37
ATOM     37  OG  SER A   3     105.293  53.004  86.016  0.00  0.00    -0.380 OA
ATOM     38  H   SER A   3     105.919  52.311  85.687  0.00  0.00    +0.211 HD
ENDBRANCH  36  37
ENDBRANCH  13  36
ENDBRANCH   9  13
ENDBRANCH   7  11
ENDBRANCH   3   7
ENDBRANCH   1   4
BRANCH   1  39
ATOM     39  C   ALA A   5     100.056  50.339  89.826  0.00  0.00    +0.241 C 
ATOM     40  N   GLY A   6     100.829  51.215  90.444  0.00  0.00    -0.295 N 
ATOM     41  H   GLY A   6     101.793  51.375  90.087  0.00  0.00    +0.150 HD
ATOM     42  O   ALA A   5      98.909  50.050  90.250  0.00  0.00    -0.273 OA
BRANCH  40  43
ATOM     43  CA  GLY A   6     100.370  51.971  91.621  0.00  0.00    +0.176 C 
BRANCH  43  44
ATOM     44  C   GLY A   6      99.257  52.957  91.330  0.00  0.00    +0.243 C 
ATOM     45  O   GLY A   6      98.275  53.077  92.066  0.00  0.00    -0.273 OA
ATOM     46  N   THR A   7      99.414  53.698  90.242  0.00  0.00    -0.295 N 
ATOM     47  H   THR A   7     100.284  53.612  89.678  0.00  0.00    +0.150 HD
BRANCH  46  48
ATOM     48  CA  THR A   7      98.375  54.632  89.832  0.00  0.00    +0.176 C 
BRANCH  48  49
ATOM     49  C   THR A   7      97.055  53.893  89.547  0.00  0.00    +0.243 C 
ATOM     50  O   THR A   7      95.970  54.295  90.032  0.00  0.00    -0.273 OA
ATOM     51  N   GLY A   8      97.136  52.806  88.769  0.00  0.00    -0.295 N 
ATOM     52  H   GLY A   8      98.063  52.511  88.401  0.00  0.00    +0.150 HD
BRANCH  51  53
ATOM     53  CA  GLY A   8      95.954  52.030  88.428  0.00  0.00    +0.176 C 
BRANCH  53  54
ATOM     54  C   GLY A   8      95.214  51.495  89.629  0.00  0.00    +0.243 C 
ATOM     55  N   ASN A   9      95.953  50.963  90.609  0.00  0.00    -0.297 N 
ATOM     56  H   ASN A   9      96.985  50.907  90.495  0.00  0.00    +0.150 HD
ATOM     57  O   GLY A   8      93.983  51.565  89.671  0.00  0.00    -0.273 OA
BRANCH  55  58
ATOM     58  CA  ASN A   9      95.334  50.454  91.848  0.00  0.00    +0.158 C 
BRANCH  58  59
ATOM     59  C   ASN A   9      94.505  51.550  92.595  0.00  0.00    +0.241 C 
ATOM     60  O   ASN A   9      93.610  51.219  93.380  0.00  0.00    -0.273 OA
ATOM     61  N   ALA A  10      94.812  52.830  92.356  0.00  0.00    -0.298 N 
ATOM     62  H   ALA A  10      95.544  53.040  91.648  0.00  0.00    +0.150 HD
BRANCH  61  63
ATOM     63  CA  ALA A  10      94.158  53.962  93.052  0.00  0.00    +0.137 C 
ATOM     64  CB  ALA A  10      95.210  55.039  93.419  0.00  0.00    +0.030 C 
BRANCH  63  65
ATOM     65  C   ALA A  10      92.997  54.639  92.292  0.00  0.00    +0.227 C 
ATOM     66  O   ALA A  10      92.425  55.615  92.800  0.00  0.00    -0.286 OA
ENDBRANCH  63  65
ENDBRANCH  61  63
ENDBRANCH  58  59
BRANCH  58  67
ATOM     67  CB  ASN A   9      96.391  49.869  92.833  0.00  0.00    +0.114 C 
BRANCH  67  68
ATOM     68  CG  ASN A   9      96.902  48.475  92.453  0.00  0.00    +0.222 C 
ATOM     69  ND2 ASN A   9      97.965  48.014  93.162  0.00  0.00    -0.329 N 
ATOM     70 HD21 ASN A   9      98.420  48.623  93.872  0.00  0.00    +0.145 HD
ATOM     71 HD22 ASN A   9      98.324  47.052  92.995  0.00  0.00    +0.145 HD
ATOM     72  OD1 ASN A   9      96.331  47.793  91.603  0.00  0.00    -0.275 OA
ENDBRANCH  67  68
ENDBRANCH  58  67
ENDBRANCH  55  58
ENDBRANCH  53  54
ENDBRANCH  51  53
ENDBRANCH  48  49
BRANCH  48  73
ATOM     73  CB  THR A   7      98.829  55.428  88.587  0.00  0.00    +0.137 C 
ATOM     74  CG2 THR A   7      97.692  56.382  88.129  0.00  0.00    +0.034 C 
BRANCH  73  75
ATOM     75  OG1 THR A   7     100.018  56.207  88.864  0.00  0.00    -0.382 OA
ATOM     76  HG1 THR A   7     100.283  56.704  88.050  0.00  0.00    +0.210 HD
ENDBRANCH  73  75
ENDBRANCH  48  73
ENDBRANCH  46  48
ENDBRANCH  43  44
ENDBRANCH  40  43
ENDBRANCH   1  39
TORSDOF 30
REMARK  Name = ../refined-set-2016/3fzn/3fzn_pocket.pdb
REMARK  268 active torsions:
REMARK  status: ('A' for Active; 'I' for Inactive)
REMARK    1  A    between atoms: _1  and  _3
REMARK    2  A    between atoms: _3  and  _4
REMARK    3  A    between atoms: _6  and  _8
REMARK    4  A    between atoms: _8  and  _9
REMARK    5  A    between atoms: _8  and  _11
REMARK    6  A    between atoms: _11  and  _12
REMARK    7  A    between atoms: _17  and  _19
REMARK    8  A    between atoms: _19  and  _20
REMARK    9  A    between atoms: _19  and  _22
REMARK   10  A    between atoms: _22  and  _23
REMARK   11  A    between atoms: _25  and  _27
REMARK   12  A    between atoms: _27  and  _28
REMARK   13  A    between atoms: _27  and  _30
REMARK   14  A    between atoms: _30  and  _31
REMARK   15  A    between atoms: _36  and  _38
REMARK   16  A    between atoms: _38  and  _39
REMARK   17  A    between atoms: _38  and  _41
REMARK   18  A    between atoms: _41  and  _42
REMARK   19  A    between atoms: _42  and  _43
REMARK   20  A    between atoms: _49  and  _50
REMARK   21  A    between atoms: _55  and  _57
REMARK   22  A    between atoms: _57  and  _58
REMARK   23  A    between atoms: _57  and  _60
REMARK   24  A    between atoms: _60  and  _61
REMARK   25  A    between atoms: _66  and  _68
REMARK   26  A    between atoms: _68  and  _69
REMARK   27  A    between atoms: _68  and  _71
REMARK   28  A    between atoms: _71  and  _72
REMARK   29  A    between atoms: _72  and  _73
REMARK   30  A    between atoms: _76  and  _78
REMARK   31  A    between atoms: _78  and  _79
REMARK   32  A    between atoms: _78  and  _81
REMARK   33  A    between atoms: _81  and  _82
REMARK   34  A    between atoms: _84  and  _86
REMARK   35  A    between atoms: _86  and  _87
REMARK   36  A    between atoms: _86  and  _89
REMARK   37  A    between atoms: _89  and  _90
REMARK   38  A    between atoms: _93  and  _95
REMARK   39  A    between atoms: _95  and  _96
REMARK   40  A    between atoms: _95  and  _98
REMARK   41  A    between atoms: _98  and  _99
REMARK   42  A    between atoms: _101  and  _103
REMARK   43  A    between atoms: _103  and  _104
REMARK   44  A    between atoms: _103  and  _106
REMARK   45  A    between atoms: _106  and  _107
REMARK   46  A    between atoms: _110  and  _112
REMARK   47  A    between atoms: _112  and  _113
REMARK   48  A    between atoms: _112  and  _115
REMARK   49  A    between atoms: _115  and  _116
REMARK   50  A    between atoms: _119  and  _121
REMARK   51  A    between atoms: _121  and  _122
REMARK   52  A    between atoms: _121  and  _124
REMARK   53  A    between atoms: _124  and  _125
REMARK   54  A    between atoms: _131  and  _133
REMARK   55  A    between atoms: _133  and  _134
REMARK   56  A    between atoms: _133  and  _136
REMARK   57  A    between atoms: _138  and  _140
REMARK   58  A    between atoms: _140  and  _141
REMARK   59  A    between atoms: _144  and  _146
REMARK   60  A    between atoms: _146  and  _147
REMARK   61  A    between atoms: _149  and  _151
REMARK   62  A    between atoms: _151  and  _152
REMARK   63  A    between atoms: _154  and  _156
REMARK   64  A    between atoms: _156  and  _157
REMARK   65  A    between atoms: _156  and  _159
REMARK   66  A    between atoms: _159  and  _160
REMARK   67  A    between atoms: _163  and  _165
REMARK   68  A    between atoms: _165  and  _166
REMARK   69  A    between atoms: _168  and  _170
REMARK   70  A    between atoms: _170  and  _171
REMARK   71  A    between atoms: _170  and  _173
REMARK   72  A    between atoms: _173  and  _174
REMARK   73  A    between atoms: _180  and  _182
REMARK   74  A    between atoms: _182  and  _183
REMARK   75  A    between atoms: _182  and  _185
REMARK   76  A    between atoms: _188  and  _190
REMARK   77  A    between atoms: _190  and  _191
REMARK   78  A    between atoms: _190  and  _193
REMARK   79  A    between atoms: _193  and  _194
REMARK   80  A    between atoms: _197  and  _199
REMARK   81  A    between atoms: _199  and  _200
REMARK   82  A    between atoms: _202  and  _204
REMARK   83  A    between atoms: _204  and  _205
REMARK   84  A    between atoms: _204  and  _207
REMARK   85  A    between atoms: _207  and  _208
REMARK   86  A    between atoms: _208  and  _209
REMARK   87  A    between atoms: _209  and  MG_664
REMARK   88  A    between atoms: _211  and  _213
REMARK   89  A    between atoms: _213  and  _214
REMARK   90  A    between atoms: _216  and  _218
REMARK   91  A    between atoms: _218  and  _219
REMARK   92  A    between atoms: _218  and  _221
REMARK   93  A    between atoms: _221  and  _222
REMARK   94  A    between atoms: _224  and  _226
REMARK   95  A    between atoms: _226  and  _227
REMARK   96  A    between atoms: _230  and  _232
REMARK   97  A    between atoms: _232  and  _233
REMARK   98  A    between atoms: _232  and  _235
REMARK   99  A    between atoms: _235  and  _236
REMARK  100  A    between atoms: _241  and  _243
REMARK  101  A    between atoms: _243  and  _244
REMARK  102  A    between atoms: _243  and  _246
REMARK  103  A    between atoms: _246  and  _247
REMARK  104  A    between atoms: _252  and  _253
REMARK  105  A    between atoms: _255  and  _257
REMARK  106  A    between atoms: _257  and  _258
REMARK  107  A    between atoms: _257  and  _260
REMARK  108  A    between atoms: _260  and  _261
REMARK  109  A    between atoms: _264  and  _266
REMARK  110  A    between atoms: _266  and  _267
REMARK  111  A    between atoms: _266  and  _269
REMARK  112  A    between atoms: _269  and  _270
REMARK  113  A    between atoms: _270  and  _271
REMARK  114  A    between atoms: _273  and  _275
REMARK  115  A    between atoms: _275  and  _276
REMARK  116  A    between atoms: _275  and  _278
REMARK  117  A    between atoms: _278  and  _279
REMARK  118  A    between atoms: _284  and  _286
REMARK  119  A    between atoms: _286  and  _287
REMARK  120  A    between atoms: _286  and  _289
REMARK  121  A    between atoms: _289  and  _290
REMARK  122  A    between atoms: _290  and  _291
REMARK  123  A    between atoms: _290  and  _292
REMARK  124  A    between atoms: _291  and  MG_664
REMARK  125  A    between atoms: _295  and  _297
REMARK  126  A    between atoms: _297  and  _298
REMARK  127  A    between atoms: _300  and  _302
REMARK  128  A    between atoms: _302  and  _303
REMARK  129  A    between atoms: _302  and  _305
REMARK  130  A    between atoms: _305  and  _306
REMARK  131  A    between atoms: _309  and  _311
REMARK  132  A    between atoms: _311  and  _312
REMARK  133  A    between atoms: _311  and  _314
REMARK  134  A    between atoms: _314  and  _315
REMARK  135  A    between atoms: _320  and  _321
REMARK  136  A    between atoms: _323  and  _325
REMARK  137  A    between atoms: _325  and  _326
REMARK  138  A    between atoms: _328  and  _330
REMARK  139  A    between atoms: _330  and  _331
REMARK  140  A    between atoms: _334  and  _336
REMARK  141  A    between atoms: _336  and  _337
REMARK  142  A    between atoms: _336  and  _339
REMARK  143  A    between atoms: _339  and  _340
REMARK  144  A    between atoms: _343  and  _345
REMARK  145  A    between atoms: _345  and  _346
REMARK  146  A    between atoms: _345  and  _348
REMARK  147  A    between atoms: _348  and  _349
REMARK  148  A    between atoms: _349  and  _350
REMARK  149  A    between atoms: _350  and  _351
REMARK  150  A    between atoms: _360  and  _362
REMARK  151  A    between atoms: _362  and  _363
REMARK  152  A    between atoms: _362  and  _365
REMARK  153  A    between atoms: _365  and  _366
REMARK  154  A    between atoms: _376  and  _378
REMARK  155  A    between atoms: _378  and  _379
REMARK  156  A    between atoms: _378  and  _381
REMARK  157  A    between atoms: _381  and  _382
REMARK  158  A    between atoms: _388  and  _390
REMARK  159  A    between atoms: _390  and  _391
REMARK  160  A    between atoms: _394  and  _396
REMARK  161  A    between atoms: _396  and  _397
REMARK  162  A    between atoms: _399  and  _401
REMARK  163  A    between atoms: _401  and  _402
REMARK  164  A    between atoms: _401  and  _404
REMARK  165  A    between atoms: _404  and  _405
REMARK  166  A    between atoms: _408  and  _410
REMARK  167  A    between atoms: _410  and  _411
REMARK  168  A    between atoms: _410  and  _413
REMARK  169  A    between atoms: _416  and  _418
REMARK  170  A    between atoms: _418  and  _419
REMARK  171  A    between atoms: _418  and  _421
REMARK  172  A    between atoms: _421  and  _422
REMARK  173  A    between atoms: _428  and  _430
REMARK  174  A    between atoms: _430  and  _431
REMARK  175  A    between atoms: _430  and  _433
REMARK  176  A    between atoms: _433  and  _434
REMARK  177  A    between atoms: _437  and  _439
REMARK  178  A    between atoms: _439  and  _440
REMARK  179  A    between atoms: _439  and  _442
REMARK  180  A    between atoms: _445  and  _447
REMARK  181  A    between atoms: _447  and  _448
REMARK  182  A    between atoms: _447  and  _450
REMARK  183  A    between atoms: _450  and  _451
REMARK  184  A    between atoms: _457  and  _458
REMARK  185  A    between atoms: _463  and  _465
REMARK  186  A    between atoms: _465  and  _466
REMARK  187  A    between atoms: _468  and  _470
REMARK  188  A    between atoms: _470  and  _471
REMARK  189  A    between atoms: _470  and  _473
REMARK  190  A    between atoms: _473  and  _474
REMARK  191  A    between atoms: _476  and  _478
REMARK  192  A    between atoms: _478  and  _479
REMARK  193  A    between atoms: _478  and  _481
REMARK  194  A    between atoms: _481  and  _482
REMARK  195  A    between atoms: _487  and  _489
REMARK  196  A    between atoms: _489  and  _490
REMARK  197  A    between atoms: _489  and  _492
REMARK  198  A    between atoms: _492  and  _493
REMARK  199  A    between atoms: _493  and  _494
REMARK  200  A    between atoms: _497  and  _499
REMARK  201  A    between atoms: _499  and  _500
REMARK  202  A    between atoms: _499  and  _502
REMARK  203  A    between atoms: _502  and  _503
REMARK  204  A    between atoms: _506  and  _508
REMARK  205  A    between atoms: _508  and  _509
REMARK  206  A    between atoms: _508  and  _511
REMARK  207  A    between atoms: _511  and  _512
REMARK  208  A    between atoms: _515  and  _517
REMARK  209  A    between atoms: _517  and  _518
REMARK  210  A    between atoms: _521  and  _523
REMARK  211  A    between atoms: _523  and  _524
REMARK  212  A    between atoms: _523  and  _526
REMARK  213  A    between atoms: _526  and  _527
REMARK  214  A    between atoms: _530  and  _532
REMARK  215  A    between atoms: _532  and  _533
REMARK  216  A    between atoms: _532  and  _535
REMARK  217  A    between atoms: _535  and  _536
REMARK  218  A    between atoms: _536  and  _537
REMARK  219  A    between atoms: _542  and  _544
REMARK  220  A    between atoms: _544  and  _545
REMARK  221  A    between atoms: _544  and  _547
REMARK  222  A    between atoms: _547  and  _548
REMARK  223  A    between atoms: _548  and  _549
REMARK  224  A    between atoms: _552  and  _554
REMARK  225  A    between atoms: _554  and  _555
REMARK  226  A    between atoms: _558  and  _560
REMARK  227  A    between atoms: _560  and  _561
REMARK  228  A    between atoms: _560  and  _563
REMARK  229  A    between atoms: _563  and  _564
REMARK  230  A    between atoms: _567  and  _569
REMARK  231  A    between atoms: _569  and  _570
REMARK  232  A    between atoms: _569  and  _572
REMARK  233  A    between atoms: _572  and  _573
REMARK  234  A    between atoms: _578  and  _580
REMARK  235  A    between atoms: _580  and  _581
REMARK  236  A    between atoms: _580  and  _583
REMARK  237  A    between atoms: _583  and  _584
REMARK  238  A    between atoms: _586  and  _588
REMARK  239  A    between atoms: _588  and  _589
REMARK  240  A    between atoms: _592  and  _594
REMARK  241  A    between atoms: _594  and  _595
REMARK  242  A    between atoms: _598  and  _600
REMARK  243  A    between atoms: _600  and  _601
REMARK  244  A    between atoms: _603  and  _605
REMARK  245  A    between atoms: _605  and  _606
REMARK  246  A    between atoms: _605  and  _608
REMARK  247  A    between atoms: _608  and  _609
REMARK  248  A    between atoms: _612  and  _614
REMARK  249  A    between atoms: _614  and  _615
REMARK  250  A    between atoms: _617  and  _619
REMARK  251  A    between atoms: _619  and  _620
REMARK  252  A    between atoms: _619  and  _622
REMARK  253  A    between atoms: _622  and  _623
REMARK  254  A    between atoms: _628  and  _630
REMARK  255  A    between atoms: _630  and  _631
REMARK  256  A    between atoms: _634  and  _636
REMARK  257  A    between atoms: _636  and  _637
REMARK  258  A    between atoms: _636  and  _639
REMARK  259  A    between atoms: _639  and  _640
REMARK  260  A    between atoms: _640  and  _641
REMARK  261  A    between atoms: _646  and  _648
REMARK  262  A    between atoms: _648  and  _649
REMARK  263  A    between atoms: _648  and  _651
REMARK  264  A    between atoms: _651  and  _652
REMARK  265  A    between atoms: _655  and  _657
REMARK  266  A    between atoms: _657  and  _658
REMARK  267  A    between atoms: _657  and  _660
REMARK  268  A    between atoms: _660  and  _661
REMARK                            x       y       z     vdW  Elec       q    Type
REMARK                         _______ _______ _______ _____ _____    ______ ____
ROOT
ATOM      1  CB  GLN A   1     111.310  53.867  83.135  0.00  0.00    +0.035 C 
ENDROOT
BRANCH   1   2
ATOM      2  CA  GLN A   1     111.385  54.904  84.282  0.00  0.00    +0.134 C 
BRANCH   2   3
ATOM      3  N   GLN A   1     110.055  55.433  84.597  0.00  0.00    -0.239 NA
ATOM      4  H   GLN A   1     109.240  55.117  84.033  0.00  0.00    +0.142 HD
ENDBRANCH   2   3
BRANCH   2   5
ATOM      5  C   GLN A   1     112.349  56.019  83.904  0.00  0.00    +0.224 C 
ATOM      6  O   GLN A   1     111.930  57.142  83.616  0.00  0.00    -0.287 OA
ENDBRANCH   2   5
ENDBRANCH   1   2
BRANCH   1   7
ATOM      7  CG  GLN A   1     111.292  52.390  83.587  0.00  0.00    +0.087 C 
BRANCH   7   8
ATOM      8  CD  GLN A   1     112.681  51.862  83.970  0.00  0.00    +0.219 C 
ATOM      9  NE2 GLN A   1     112.793  50.541  84.193  0.00  0.00    -0.329 N 
ATOM     10 HE21 GLN A   1     113.717  50.132  84.440  0.00  0.00    +0.145 HD
ATOM     11 HE22 GLN A   1     111.956  49.928  84.119  0.00  0.00    +0.145 HD
ATOM     12  OE1 GLN A   1     113.643  52.634  84.045  0.00  0.00    -0.275 OA
ENDBRANCH   7   8
ENDBRANCH   1   7
TORSDOF 5
REMARK  Name = ../refined-set-2016/3fzn/3fzn_pocket.pdb
REMARK  268 active torsions:
REMARK  status: ('A' for Active; 'I' for Inactive)
REMARK    1  A    between atoms: _1  and  _3
REMARK    2  A    between atoms: _3  and  _4
REMARK    3  A    between atoms: _6  and  _8
REMARK    4  A    between atoms: _8  and  _9
REMARK    5  A    between atoms: _8  and  _11
REMARK    6  A    between atoms: _11  and  _12
REMARK    7  A    between atoms: _17  and  _19
REMARK    8  A    between atoms: _19  and  _20
REMARK    9  A    between atoms: _19  and  _22
REMARK   10  A    between atoms: _22  and  _23
REMARK   11  A    between atoms: _25  and  _27
REMARK   12  A    between atoms: _27  and  _28
REMARK   13  A    between atoms: _27  and  _30
REMARK   14  A    between atoms: _30  and  _31
REMARK   15  A    between atoms: _36  and  _38
REMARK   16  A    between atoms: _38  and  _39
REMARK   17  A    between atoms: _38  and  _41
REMARK   18  A    between atoms: _41  and  _42
REMARK   19  A    between atoms: _42  and  _43
REMARK   20  A    between atoms: _49  and  _50
REMARK   21  A    between atoms: _55  and  _57
REMARK   22  A    between atoms: _57  and  _58
REMARK   23  A    between atoms: _57  and  _60
REMARK   24  A    between atoms: _60  and  _61
REMARK   25  A    between atoms: _66  and  _68
REMARK   26  A    between atoms: _68  and  _69
REMARK   27  A    between atoms: _68  and  _71
REMARK   28  A    between atoms: _71  and  _72
REMARK   29  A    between atoms: _72  and  _73
REMARK   30  A    between atoms: _76  and  _78
REMARK   31  A    between atoms: _78  and  _79
REMARK   32  A    between atoms: _78  and  _81
REMARK   33  A    between atoms: _81  and  _82
REMARK   34  A    between atoms: _84  and  _86
REMARK   35  A    between atoms: _86  and  _87
REMARK   36  A    between atoms: _86  and  _89
REMARK   37  A    between atoms: _89  and  _90
REMARK   38  A    between atoms: _93  and  _95
REMARK   39  A    between atoms: _95  and  _96
REMARK   40  A    between atoms: _95  and  _98
REMARK   41  A    between atoms: _98  and  _99
REMARK   42  A    between atoms: _101  and  _103
REMARK   43  A    between atoms: _103  and  _104
REMARK   44  A    between atoms: _103  and  _106
REMARK   45  A    between atoms: _106  and  _107
REMARK   46  A    between atoms: _110  and  _112
REMARK   47  A    between atoms: _112  and  _113
REMARK   48  A    between atoms: _112  and  _115
REMARK   49  A    between atoms: _115  and  _116
REMARK   50  A    between atoms: _119  and  _121
REMARK   51  A    between atoms: _121  and  _122
REMARK   52  A    between atoms: _121  and  _124
REMARK   53  A    between atoms: _124  and  _125
REMARK   54  A    between atoms: _131  and  _133
REMARK   55  A    between atoms: _133  and  _134
REMARK   56  A    between atoms: _133  and  _136
REMARK   57  A    between atoms: _138  and  _140
REMARK   58  A    between atoms: _140  and  _141
REMARK   59  A    between atoms: _144  and  _146
REMARK   60  A    between atoms: _146  and  _147
REMARK   61  A    between atoms: _149  and  _151
REMARK   62  A    between atoms: _151  and  _152
REMARK   63  A    between atoms: _154  and  _156
REMARK   64  A    between atoms: _156  and  _157
REMARK   65  A    between atoms: _156  and  _159
REMARK   66  A    between atoms: _159  and  _160
REMARK   67  A    between atoms: _163  and  _165
REMARK   68  A    between atoms: _165  and  _166
REMARK   69  A    between atoms: _168  and  _170
REMARK   70  A    between atoms: _170  and  _171
REMARK   71  A    between atoms: _170  and  _173
REMARK   72  A    between atoms: _173  and  _174
REMARK   73  A    between atoms: _180  and  _182
REMARK   74  A    between atoms: _182  and  _183
REMARK   75  A    between atoms: _182  and  _185
REMARK   76  A    between atoms: _188  and  _190
REMARK   77  A    between atoms: _190  and  _191
REMARK   78  A    between atoms: _190  and  _193
REMARK   79  A    between atoms: _193  and  _194
REMARK   80  A    between atoms: _197  and  _199
REMARK   81  A    between atoms: _199  and  _200
REMARK   82  A    between atoms: _202  and  _204
REMARK   83  A    between atoms: _204  and  _205
REMARK   84  A    between atoms: _204  and  _207
REMARK   85  A    between atoms: _207  and  _208
REMARK   86  A    between atoms: _208  and  _209
REMARK   87  A    between atoms: _209  and  MG_664
REMARK   88  A    between atoms: _211  and  _213
REMARK   89  A    between atoms: _213  and  _214
REMARK   90  A    between atoms: _216  and  _218
REMARK   91  A    between atoms: _218  and  _219
REMARK   92  A    between atoms: _218  and  _221
REMARK   93  A    between atoms: _221  and  _222
REMARK   94  A    between atoms: _224  and  _226
REMARK   95  A    between atoms: _226  and  _227
REMARK   96  A    between atoms: _230  and  _232
REMARK   97  A    between atoms: _232  and  _233
REMARK   98  A    between atoms: _232  and  _235
REMARK   99  A    between atoms: _235  and  _236
REMARK  100  A    between atoms: _241  and  _243
REMARK  101  A    between atoms: _243  and  _244
REMARK  102  A    between atoms: _243  and  _246
REMARK  103  A    between atoms: _246  and  _247
REMARK  104  A    between atoms: _252  and  _253
REMARK  105  A    between atoms: _255  and  _257
REMARK  106  A    between atoms: _257  and  _258
REMARK  107  A    between atoms: _257  and  _260
REMARK  108  A    between atoms: _260  and  _261
REMARK  109  A    between atoms: _264  and  _266
REMARK  110  A    between atoms: _266  and  _267
REMARK  111  A    between atoms: _266  and  _269
REMARK  112  A    between atoms: _269  and  _270
REMARK  113  A    between atoms: _270  and  _271
REMARK  114  A    between atoms: _273  and  _275
REMARK  115  A    between atoms: _275  and  _276
REMARK  116  A    between atoms: _275  and  _278
REMARK  117  A    between atoms: _278  and  _279
REMARK  118  A    between atoms: _284  and  _286
REMARK  119  A    between atoms: _286  and  _287
REMARK  120  A    between atoms: _286  and  _289
REMARK  121  A    between atoms: _289  and  _290
REMARK  122  A    between atoms: _290  and  _291
REMARK  123  A    between atoms: _290  and  _292
REMARK  124  A    between atoms: _291  and  MG_664
REMARK  125  A    between atoms: _295  and  _297
REMARK  126  A    between atoms: _297  and  _298
REMARK  127  A    between atoms: _300  and  _302
REMARK  128  A    between atoms: _302  and  _303
REMARK  129  A    between atoms: _302  and  _305
REMARK  130  A    between atoms: _305  and  _306
REMARK  131  A    between atoms: _309  and  _311
REMARK  132  A    between atoms: _311  and  _312
REMARK  133  A    between atoms: _311  and  _314
REMARK  134  A    between atoms: _314  and  _315
REMARK  135  A    between atoms: _320  and  _321
REMARK  136  A    between atoms: _323  and  _325
REMARK  137  A    between atoms: _325  and  _326
REMARK  138  A    between atoms: _328  and  _330
REMARK  139  A    between atoms: _330  and  _331
REMARK  140  A    between atoms: _334  and  _336
REMARK  141  A    between atoms: _336  and  _337
REMARK  142  A    between atoms: _336  and  _339
REMARK  143  A    between atoms: _339  and  _340
REMARK  144  A    between atoms: _343  and  _345
REMARK  145  A    between atoms: _345  and  _346
REMARK  146  A    between atoms: _345  and  _348
REMARK  147  A    between atoms: _348  and  _349
REMARK  148  A    between atoms: _349  and  _350
REMARK  149  A    between atoms: _350  and  _351
REMARK  150  A    between atoms: _360  and  _362
REMARK  151  A    between atoms: _362  and  _363
REMARK  152  A    between atoms: _362  and  _365
REMARK  153  A    between atoms: _365  and  _366
REMARK  154  A    between atoms: _376  and  _378
REMARK  155  A    between atoms: _378  and  _379
REMARK  156  A    between atoms: _378  and  _381
REMARK  157  A    between atoms: _381  and  _382
REMARK  158  A    between atoms: _388  and  _390
REMARK  159  A    between atoms: _390  and  _391
REMARK  160  A    between atoms: _394  and  _396
REMARK  161  A    between atoms: _396  and  _397
REMARK  162  A    between atoms: _399  and  _401
REMARK  163  A    between atoms: _401  and  _402
REMARK  164  A    between atoms: _401  and  _404
REMARK  165  A    between atoms: _404  and  _405
REMARK  166  A    between atoms: _408  and  _410
REMARK  167  A    between atoms: _410  and  _411
REMARK  168  A    between atoms: _410  and  _413
REMARK  169  A    between atoms: _416  and  _418
REMARK  170  A    between atoms: _418  and  _419
REMARK  171  A    between atoms: _418  and  _421
REMARK  172  A    between atoms: _421  and  _422
REMARK  173  A    between atoms: _428  and  _430
REMARK  174  A    between atoms: _430  and  _431
REMARK  175  A    between atoms: _430  and  _433
REMARK  176  A    between atoms: _433  and  _434
REMARK  177  A    between atoms: _437  and  _439
REMARK  178  A    between atoms: _439  and  _440
REMARK  179  A    between atoms: _439  and  _442
REMARK  180  A    between atoms: _445  and  _447
REMARK  181  A    between atoms: _447  and  _448
REMARK  182  A    between atoms: _447  and  _450
REMARK  183  A    between atoms: _450  and  _451
REMARK  184  A    between atoms: _457  and  _458
REMARK  185  A    between atoms: _463  and  _465
REMARK  186  A    between atoms: _465  and  _466
REMARK  187  A    between atoms: _468  and  _470
REMARK  188  A    between atoms: _470  and  _471
REMARK  189  A    between atoms: _470  and  _473
REMARK  190  A    between atoms: _473  and  _474
REMARK  191  A    between atoms: _476  and  _478
REMARK  192  A    between atoms: _478  and  _479
REMARK  193  A    between atoms: _478  and  _481
REMARK  194  A    between atoms: _481  and  _482
REMARK  195  A    between atoms: _487  and  _489
REMARK  196  A    between atoms: _489  and  _490
REMARK  197  A    between atoms: _489  and  _492
REMARK  198  A    between atoms: _492  and  _493
REMARK  199  A    between atoms: _493  and  _494
REMARK  200  A    between atoms: _497  and  _499
REMARK  201  A    between atoms: _499  and  _500
REMARK  202  A    between atoms: _499  and  _502
REMARK  203  A    between atoms: _502  and  _503
REMARK  204  A    between atoms: _506  and  _508
REMARK  205  A    between atoms: _508  and  _509
REMARK  206  A    between atoms: _508  and  _511
REMARK  207  A    between atoms: _511  and  _512
REMARK  208  A    between atoms: _515  and  _517
REMARK  209  A    between atoms: _517  and  _518
REMARK  210  A    between atoms: _521  and  _523
REMARK  211  A    between atoms: _523  and  _524
REMARK  212  A    between atoms: _523  and  _526
REMARK  213  A    between atoms: _526  and  _527
REMARK  214  A    between atoms: _530  and  _532
REMARK  215  A    between atoms: _532  and  _533
REMARK  216  A    between atoms: _532  and  _535
REMARK  217  A    between atoms: _535  and  _536
REMARK  218  A    between atoms: _536  and  _537
REMARK  219  A    between atoms: _542  and  _544
REMARK  220  A    between atoms: _544  and  _545
REMARK  221  A    between atoms: _544  and  _547
REMARK  222  A    between atoms: _547  and  _548
REMARK  223  A    between atoms: _548  and  _549
REMARK  224  A    between atoms: _552  and  _554
REMARK  225  A    between atoms: _554  and  _555
REMARK  226  A    between atoms: _558  and  _560
REMARK  227  A    between atoms: _560  and  _561
REMARK  228  A    between atoms: _560  and  _563
REMARK  229  A    between atoms: _563  and  _564
REMARK  230  A    between atoms: _567  and  _569
REMARK  231  A    between atoms: _569  and  _570
REMARK  232  A    between atoms: _569  and  _572
REMARK  233  A    between atoms: _572  and  _573
REMARK  234  A    between atoms: _578  and  _580
REMARK  235  A    between atoms: _580  and  _581
REMARK  236  A    between atoms: _580  and  _583
REMARK  237  A    between atoms: _583  and  _584
REMARK  238  A    between atoms: _586  and  _588
REMARK  239  A    between atoms: _588  and  _589
REMARK  240  A    between atoms: _592  and  _594
REMARK  241  A    between atoms: _594  and  _595
REMARK  242  A    between atoms: _598  and  _600
REMARK  243  A    between atoms: _600  and  _601
REMARK  244  A    between atoms: _603  and  _605
REMARK  245  A    between atoms: _605  and  _606
REMARK  246  A    between atoms: _605  and  _608
REMARK  247  A    between atoms: _608  and  _609
REMARK  248  A    between atoms: _612  and  _614
REMARK  249  A    between atoms: _614  and  _615
REMARK  250  A    between atoms: _617  and  _619
REMARK  251  A    between atoms: _619  and  _620
REMARK  252  A    between atoms: _619  and  _622
REMARK  253  A    between atoms: _622  and  _623
REMARK  254  A    between atoms: _628  and  _630
REMARK  255  A    between atoms: _630  and  _631
REMARK  256  A    between atoms: _634  and  _636
REMARK  257  A    between atoms: _636  and  _637
REMARK  258  A    between atoms: _636  and  _639
REMARK  259  A    between atoms: _639  and  _640
REMARK  260  A    between atoms: _640  and  _641
REMARK  261  A    between atoms: _646  and  _648
REMARK  262  A    between atoms: _648  and  _649
REMARK  263  A    between atoms: _648  and  _651
REMARK  264  A    between atoms: _651  and  _652
REMARK  265  A    between atoms: _655  and  _657
REMARK  266  A    between atoms: _657  and  _658
REMARK  267  A    between atoms: _657  and  _660
REMARK  268  A    between atoms: _660  and  _661
REMARK                            x       y       z     vdW  Elec       q    Type
REMARK                         _______ _______ _______ _____ _____    ______ ____
ROOT
ATOM      1  C   LEU A   1     109.464  48.243  83.768  0.00  0.00    +0.238 C 
ATOM      2  N   LEU A   2     108.246  48.514  84.246  0.00  0.00    -0.298 N 
ATOM      3  H   LEU A   2     107.485  47.839  84.029  0.00  0.00    +0.150 HD
ATOM      4  O   LEU A   1     110.448  48.950  83.976  0.00  0.00    -0.274 OA
ENDROOT
BRANCH   1   5
ATOM      5  CA  LEU A   1     109.573  46.971  82.911  0.00  0.00    +0.145 C 
BRANCH   5   6
ATOM      6  N   LEU A   1     110.490  47.214  81.800  0.00  0.00    -0.238 NA
ATOM      7  H   LEU A   1     111.285  46.563  81.641  0.00  0.00    +0.142 HD
ENDBRANCH   5   6
BRANCH   5   8
ATOM      8  CB  LEU A   1     110.044  45.794  83.784  0.00  0.00    +0.026 C 
BRANCH   8   9
ATOM      9  CG  LEU A   1     108.945  45.121  84.617  0.00  0.00    +0.002 C 
ATOM     10  CD2 LEU A   1     109.542  44.325  85.810  0.00  0.00    +0.000 C 
ATOM     11  CD1 LEU A   1     108.046  44.251  83.797  0.00  0.00    +0.000 C 
ENDBRANCH   8   9
ENDBRANCH   5   8
ENDBRANCH   1   5
BRANCH   2  12
ATOM     12  CA  LEU A   2     107.895  49.697  85.059  0.00  0.00    +0.137 C 
BRANCH  12  13
ATOM     13  C   LEU A   2     107.839  51.033  84.288  0.00  0.00    +0.227 C 
ATOM     14  O   LEU A   2     107.676  52.101  84.914  0.00  0.00    -0.286 OA
ENDBRANCH  12  13
BRANCH  12  15
ATOM     15  CB  LEU A   2     108.768  49.829  86.301  0.00  0.00    +0.028 C 
BRANCH  15  16
ATOM     16  CG  LEU A   2     109.006  48.573  87.154  0.00  0.00    +0.002 C 
ATOM     17  CD2 LEU A   2     110.002  48.862  88.273  0.00  0.00    +0.000 C 
ATOM     18  CD1 LEU A   2     107.682  48.041  87.716  0.00  0.00    +0.000 C 
ENDBRANCH  15  16
ENDBRANCH  12  15
ENDBRANCH   2  12
TORSDOF 8
REMARK  Name = ../refined-set-2016/3fzn/3fzn_pocket.pdb
REMARK  268 active torsions:
REMARK  status: ('A' for Active; 'I' for Inactive)
REMARK    1  A    between atoms: _1  and  _3
REMARK    2  A    between atoms: _3  and  _4
REMARK    3  A    between atoms: _6  and  _8
REMARK    4  A    between atoms: _8  and  _9
REMARK    5  A    between atoms: _8  and  _11
REMARK    6  A    between atoms: _11  and  _12
REMARK    7  A    between atoms: _17  and  _19
REMARK    8  A    between atoms: _19  and  _20
REMARK    9  A    between atoms: _19  and  _22
REMARK   10  A    between atoms: _22  and  _23
REMARK   11  A    between atoms: _25  and  _27
REMARK   12  A    between atoms: _27  and  _28
REMARK   13  A    between atoms: _27  and  _30
REMARK   14  A    between atoms: _30  and  _31
REMARK   15  A    between atoms: _36  and  _38
REMARK   16  A    between atoms: _38  and  _39
REMARK   17  A    between atoms: _38  and  _41
REMARK   18  A    between atoms: _41  and  _42
REMARK   19  A    between atoms: _42  and  _43
REMARK   20  A    between atoms: _49  and  _50
REMARK   21  A    between atoms: _55  and  _57
REMARK   22  A    between atoms: _57  and  _58
REMARK   23  A    between atoms: _57  and  _60
REMARK   24  A    between atoms: _60  and  _61
REMARK   25  A    between atoms: _66  and  _68
REMARK   26  A    between atoms: _68  and  _69
REMARK   27  A    between atoms: _68  and  _71
REMARK   28  A    between atoms: _71  and  _72
REMARK   29  A    between atoms: _72  and  _73
REMARK   30  A    between atoms: _76  and  _78
REMARK   31  A    between atoms: _78  and  _79
REMARK   32  A    between atoms: _78  and  _81
REMARK   33  A    between atoms: _81  and  _82
REMARK   34  A    between atoms: _84  and  _86
REMARK   35  A    between atoms: _86  and  _87
REMARK   36  A    between atoms: _86  and  _89
REMARK   37  A    between atoms: _89  and  _90
REMARK   38  A    between atoms: _93  and  _95
REMARK   39  A    between atoms: _95  and  _96
REMARK   40  A    between atoms: _95  and  _98
REMARK   41  A    between atoms: _98  and  _99
REMARK   42  A    between atoms: _101  and  _103
REMARK   43  A    between atoms: _103  and  _104
REMARK   44  A    between atoms: _103  and  _106
REMARK   45  A    between atoms: _106  and  _107
REMARK   46  A    between atoms: _110  and  _112
REMARK   47  A    between atoms: _112  and  _113
REMARK   48  A    between atoms: _112  and  _115
REMARK   49  A    between atoms: _115  and  _116
REMARK   50  A    between atoms: _119  and  _121
REMARK   51  A    between atoms: _121  and  _122
REMARK   52  A    between atoms: _121  and  _124
REMARK   53  A    between atoms: _124  and  _125
REMARK   54  A    between atoms: _131  and  _133
REMARK   55  A    between atoms: _133  and  _134
REMARK   56  A    between atoms: _133  and  _136
REMARK   57  A    between atoms: _138  and  _140
REMARK   58  A    between atoms: _140  and  _141
REMARK   59  A    between atoms: _144  and  _146
REMARK   60  A    between atoms: _146  and  _147
REMARK   61  A    between atoms: _149  and  _151
REMARK   62  A    between atoms: _151  and  _152
REMARK   63  A    between atoms: _154  and  _156
REMARK   64  A    between atoms: _156  and  _157
REMARK   65  A    between atoms: _156  and  _159
REMARK   66  A    between atoms: _159  and  _160
REMARK   67  A    between atoms: _163  and  _165
REMARK   68  A    between atoms: _165  and  _166
REMARK   69  A    between atoms: _168  and  _170
REMARK   70  A    between atoms: _170  and  _171
REMARK   71  A    between atoms: _170  and  _173
REMARK   72  A    between atoms: _173  and  _174
REMARK   73  A    between atoms: _180  and  _182
REMARK   74  A    between atoms: _182  and  _183
REMARK   75  A    between atoms: _182  and  _185
REMARK   76  A    between atoms: _188  and  _190
REMARK   77  A    between atoms: _190  and  _191
REMARK   78  A    between atoms: _190  and  _193
REMARK   79  A    between atoms: _193  and  _194
REMARK   80  A    between atoms: _197  and  _199
REMARK   81  A    between atoms: _199  and  _200
REMARK   82  A    between atoms: _202  and  _204
REMARK   83  A    between atoms: _204  and  _205
REMARK   84  A    between atoms: _204  and  _207
REMARK   85  A    between atoms: _207  and  _208
REMARK   86  A    between atoms: _208  and  _209
REMARK   87  A    between atoms: _209  and  MG_664
REMARK   88  A    between atoms: _211  and  _213
REMARK   89  A    between atoms: _213  and  _214
REMARK   90  A    between atoms: _216  and  _218
REMARK   91  A    between atoms: _218  and  _219
REMARK   92  A    between atoms: _218  and  _221
REMARK   93  A    between atoms: _221  and  _222
REMARK   94  A    between atoms: _224  and  _226
REMARK   95  A    between atoms: _226  and  _227
REMARK   96  A    between atoms: _230  and  _232
REMARK   97  A    between atoms: _232  and  _233
REMARK   98  A    between atoms: _232  and  _235
REMARK   99  A    between atoms: _235  and  _236
REMARK  100  A    between atoms: _241  and  _243
REMARK  101  A    between atoms: _243  and  _244
REMARK  102  A    between atoms: _243  and  _246
REMARK  103  A    between atoms: _246  and  _247
REMARK  104  A    between atoms: _252  and  _253
REMARK  105  A    between atoms: _255  and  _257
REMARK  106  A    between atoms: _257  and  _258
REMARK  107  A    between atoms: _257  and  _260
REMARK  108  A    between atoms: _260  and  _261
REMARK  109  A    between atoms: _264  and  _266
REMARK  110  A    between atoms: _266  and  _267
REMARK  111  A    between atoms: _266  and  _269
REMARK  112  A    between atoms: _269  and  _270
REMARK  113  A    between atoms: _270  and  _271
REMARK  114  A    between atoms: _273  and  _275
REMARK  115  A    between atoms: _275  and  _276
REMARK  116  A    between atoms: _275  and  _278
REMARK  117  A    between atoms: _278  and  _279
REMARK  118  A    between atoms: _284  and  _286
REMARK  119  A    between atoms: _286  and  _287
REMARK  120  A    between atoms: _286  and  _289
REMARK  121  A    between atoms: _289  and  _290
REMARK  122  A    between atoms: _290  and  _291
REMARK  123  A    between atoms: _290  and  _292
REMARK  124  A    between atoms: _291  and  MG_664
REMARK  125  A    between atoms: _295  and  _297
REMARK  126  A    between atoms: _297  and  _298
REMARK  127  A    between atoms: _300  and  _302
REMARK  128  A    between atoms: _302  and  _303
REMARK  129  A    between atoms: _302  and  _305
REMARK  130  A    between atoms: _305  and  _306
REMARK  131  A    between atoms: _309  and  _311
REMARK  132  A    between atoms: _311  and  _312
REMARK  133  A    between atoms: _311  and  _314
REMARK  134  A    between atoms: _314  and  _315
REMARK  135  A    between atoms: _320  and  _321
REMARK  136  A    between atoms: _323  and  _325
REMARK  137  A    between atoms: _325  and  _326
REMARK  138  A    between atoms: _328  and  _330
REMARK  139  A    between atoms: _330  and  _331
REMARK  140  A    between atoms: _334  and  _336
REMARK  141  A    between atoms: _336  and  _337
REMARK  142  A    between atoms: _336  and  _339
REMARK  143  A    between atoms: _339  and  _340
REMARK  144  A    between atoms: _343  and  _345
REMARK  145  A    between atoms: _345  and  _346
REMARK  146  A    between atoms: _345  and  _348
REMARK  147  A    between atoms: _348  and  _349
REMARK  148  A    between atoms: _349  and  _350
REMARK  149  A    between atoms: _350  and  _351
REMARK  150  A    between atoms: _360  and  _362
REMARK  151  A    between atoms: _362  and  _363
REMARK  152  A    between atoms: _362  and  _365
REMARK  153  A    between atoms: _365  and  _366
REMARK  154  A    between atoms: _376  and  _378
REMARK  155  A    between atoms: _378  and  _379
REMARK  156  A    between atoms: _378  and  _381
REMARK  157  A    between atoms: _381  and  _382
REMARK  158  A    between atoms: _388  and  _390
REMARK  159  A    between atoms: _390  and  _391
REMARK  160  A    between atoms: _394  and  _396
REMARK  161  A    between atoms: _396  and  _397
REMARK  162  A    between atoms: _399  and  _401
REMARK  163  A    between atoms: _401  and  _402
REMARK  164  A    between atoms: _401  and  _404
REMARK  165  A    between atoms: _404  and  _405
REMARK  166  A    between atoms: _408  and  _410
REMARK  167  A    between atoms: _410  and  _411
REMARK  168  A    between atoms: _410  and  _413
REMARK  169  A    between atoms: _416  and  _418
REMARK  170  A    between atoms: _418  and  _419
REMARK  171  A    between atoms: _418  and  _421
REMARK  172  A    between atoms: _421  and  _422
REMARK  173  A    between atoms: _428  and  _430
REMARK  174  A    between atoms: _430  and  _431
REMARK  175  A    between atoms: _430  and  _433
REMARK  176  A    between atoms: _433  and  _434
REMARK  177  A    between atoms: _437  and  _439
REMARK  178  A    between atoms: _439  and  _440
REMARK  179  A    between atoms: _439  and  _442
REMARK  180  A    between atoms: _445  and  _447
REMARK  181  A    between atoms: _447  and  _448
REMARK  182  A    between atoms: _447  and  _450
REMARK  183  A    between atoms: _450  and  _451
REMARK  184  A    between atoms: _457  and  _458
REMARK  185  A    between atoms: _463  and  _465
REMARK  186  A    between atoms: _465  and  _466
REMARK  187  A    between atoms: _468  and  _470
REMARK  188  A    between atoms: _470  and  _471
REMARK  189  A    between atoms: _470  and  _473
REMARK  190  A    between atoms: _473  and  _474
REMARK  191  A    between atoms: _476  and  _478
REMARK  192  A    between atoms: _478  and  _479
REMARK  193  A    between atoms: _478  and  _481
REMARK  194  A    between atoms: _481  and  _482
REMARK  195  A    between atoms: _487  and  _489
REMARK  196  A    between atoms: _489  and  _490
REMARK  197  A    between atoms: _489  and  _492
REMARK  198  A    between atoms: _492  and  _493
REMARK  199  A    between atoms: _493  and  _494
REMARK  200  A    between atoms: _497  and  _499
REMARK  201  A    between atoms: _499  and  _500
REMARK  202  A    between atoms: _499  and  _502
REMARK  203  A    between atoms: _502  and  _503
REMARK  204  A    between atoms: _506  and  _508
REMARK  205  A    between atoms: _508  and  _509
REMARK  206  A    between atoms: _508  and  _511
REMARK  207  A    between atoms: _511  and  _512
REMARK  208  A    between atoms: _515  and  _517
REMARK  209  A    between atoms: _517  and  _518
REMARK  210  A    between atoms: _521  and  _523
REMARK  211  A    between atoms: _523  and  _524
REMARK  212  A    between atoms: _523  and  _526
REMARK  213  A    between atoms: _526  and  _527
REMARK  214  A    between atoms: _530  and  _532
REMARK  215  A    between atoms: _532  and  _533
REMARK  216  A    between atoms: _532  and  _535
REMARK  217  A    between atoms: _535  and  _536
REMARK  218  A    between atoms: _536  and  _537
REMARK  219  A    between atoms: _542  and  _544
REMARK  220  A    between atoms: _544  and  _545
REMARK  221  A    between atoms: _544  and  _547
REMARK  222  A    between atoms: _547  and  _548
REMARK  223  A    between atoms: _548  and  _549
REMARK  224  A    between atoms: _552  and  _554
REMARK  225  A    between atoms: _554  and  _555
REMARK  226  A    between atoms: _558  and  _560
REMARK  227  A    between atoms: _560  and  _561
REMARK  228  A    between atoms: _560  and  _563
REMARK  229  A    between atoms: _563  and  _564
REMARK  230  A    between atoms: _567  and  _569
REMARK  231  A    between atoms: _569  and  _570
REMARK  232  A    between atoms: _569  and  _572
REMARK  233  A    between atoms: _572  and  _573
REMARK  234  A    between atoms: _578  and  _580
REMARK  235  A    between atoms: _580  and  _581
REMARK  236  A    between atoms: _580  and  _583
REMARK  237  A    between atoms: _583  and  _584
REMARK  238  A    between atoms: _586  and  _588
REMARK  239  A    between atoms: _588  and  _589
REMARK  240  A    between atoms: _592  and  _594
REMARK  241  A    between atoms: _594  and  _595
REMARK  242  A    between atoms: _598  and  _600
REMARK  243  A    between atoms: _600  and  _601
REMARK  244  A    between atoms: _603  and  _605
REMARK  245  A    between atoms: _605  and  _606
REMARK  246  A    between atoms: _605  and  _608
REMARK  247  A    between atoms: _608  and  _609
REMARK  248  A    between atoms: _612  and  _614
REMARK  249  A    between atoms: _614  and  _615
REMARK  250  A    between atoms: _617  and  _619
REMARK  251  A    between atoms: _619  and  _620
REMARK  252  A    between atoms: _619  and  _622
REMARK  253  A    between atoms: _622  and  _623
REMARK  254  A    between atoms: _628  and  _630
REMARK  255  A    between atoms: _630  and  _631
REMARK  256  A    between atoms: _634  and  _636
REMARK  257  A    between atoms: _636  and  _637
REMARK  258  A    between atoms: _636  and  _639
REMARK  259  A    between atoms: _639  and  _640
REMARK  260  A    between atoms: _640  and  _641
REMARK  261  A    between atoms: _646  and  _648
REMARK  262  A    between atoms: _648  and  _649
REMARK  263  A    between atoms: _648  and  _651
REMARK  264  A    between atoms: _651  and  _652
REMARK  265  A    between atoms: _655  and  _657
REMARK  266  A    between atoms: _657  and  _658
REMARK  267  A    between atoms: _657  and  _660
REMARK  268  A    between atoms: _660  and  _661
REMARK                            x       y       z     vdW  Elec       q    Type
REMARK                         _______ _______ _______ _____ _____    ______ ____
ROOT
ATOM      1  O   HOH     1     109.213  38.617 101.453  0.00  0.00    +0.000 OA
ENDROOT
TORSDOF 0
REMARK  Name = ../refined-set-2016/3fzn/3fzn_pocket.pdb
REMARK  268 active torsions:
REMARK  status: ('A' for Active; 'I' for Inactive)
REMARK    1  A    between atoms: _1  and  _3
REMARK    2  A    between atoms: _3  and  _4
REMARK    3  A    between atoms: _6  and  _8
REMARK    4  A    between atoms: _8  and  _9
REMARK    5  A    between atoms: _8  and  _11
REMARK    6  A    between atoms: _11  and  _12
REMARK    7  A    between atoms: _17  and  _19
REMARK    8  A    between atoms: _19  and  _20
REMARK    9  A    between atoms: _19  and  _22
REMARK   10  A    between atoms: _22  and  _23
REMARK   11  A    between atoms: _25  and  _27
REMARK   12  A    between atoms: _27  and  _28
REMARK   13  A    between atoms: _27  and  _30
REMARK   14  A    between atoms: _30  and  _31
REMARK   15  A    between atoms: _36  and  _38
REMARK   16  A    between atoms: _38  and  _39
REMARK   17  A    between atoms: _38  and  _41
REMARK   18  A    between atoms: _41  and  _42
REMARK   19  A    between atoms: _42  and  _43
REMARK   20  A    between atoms: _49  and  _50
REMARK   21  A    between atoms: _55  and  _57
REMARK   22  A    between atoms: _57  and  _58
REMARK   23  A    between atoms: _57  and  _60
REMARK   24  A    between atoms: _60  and  _61
REMARK   25  A    between atoms: _66  and  _68
REMARK   26  A    between atoms: _68  and  _69
REMARK   27  A    between atoms: _68  and  _71
REMARK   28  A    between atoms: _71  and  _72
REMARK   29  A    between atoms: _72  and  _73
REMARK   30  A    between atoms: _76  and  _78
REMARK   31  A    between atoms: _78  and  _79
REMARK   32  A    between atoms: _78  and  _81
REMARK   33  A    between atoms: _81  and  _82
REMARK   34  A    between atoms: _84  and  _86
REMARK   35  A    between atoms: _86  and  _87
REMARK   36  A    between atoms: _86  and  _89
REMARK   37  A    between atoms: _89  and  _90
REMARK   38  A    between atoms: _93  and  _95
REMARK   39  A    between atoms: _95  and  _96
REMARK   40  A    between atoms: _95  and  _98
REMARK   41  A    between atoms: _98  and  _99
REMARK   42  A    between atoms: _101  and  _103
REMARK   43  A    between atoms: _103  and  _104
REMARK   44  A    between atoms: _103  and  _106
REMARK   45  A    between atoms: _106  and  _107
REMARK   46  A    between atoms: _110  and  _112
REMARK   47  A    between atoms: _112  and  _113
REMARK   48  A    between atoms: _112  and  _115
REMARK   49  A    between atoms: _115  and  _116
REMARK   50  A    between atoms: _119  and  _121
REMARK   51  A    between atoms: _121  and  _122
REMARK   52  A    between atoms: _121  and  _124
REMARK   53  A    between atoms: _124  and  _125
REMARK   54  A    between atoms: _131  and  _133
REMARK   55  A    between atoms: _133  and  _134
REMARK   56  A    between atoms: _133  and  _136
REMARK   57  A    between atoms: _138  and  _140
REMARK   58  A    between atoms: _140  and  _141
REMARK   59  A    between atoms: _144  and  _146
REMARK   60  A    between atoms: _146  and  _147
REMARK   61  A    between atoms: _149  and  _151
REMARK   62  A    between atoms: _151  and  _152
REMARK   63  A    between atoms: _154  and  _156
REMARK   64  A    between atoms: _156  and  _157
REMARK   65  A    between atoms: _156  and  _159
REMARK   66  A    between atoms: _159  and  _160
REMARK   67  A    between atoms: _163  and  _165
REMARK   68  A    between atoms: _165  and  _166
REMARK   69  A    between atoms: _168  and  _170
REMARK   70  A    between atoms: _170  and  _171
REMARK   71  A    between atoms: _170  and  _173
REMARK   72  A    between atoms: _173  and  _174
REMARK   73  A    between atoms: _180  and  _182
REMARK   74  A    between atoms: _182  and  _183
REMARK   75  A    between atoms: _182  and  _185
REMARK   76  A    between atoms: _188  and  _190
REMARK   77  A    between atoms: _190  and  _191
REMARK   78  A    between atoms: _190  and  _193
REMARK   79  A    between atoms: _193  and  _194
REMARK   80  A    between atoms: _197  and  _199
REMARK   81  A    between atoms: _199  and  _200
REMARK   82  A    between atoms: _202  and  _204
REMARK   83  A    between atoms: _204  and  _205
REMARK   84  A    between atoms: _204  and  _207
REMARK   85  A    between atoms: _207  and  _208
REMARK   86  A    between atoms: _208  and  _209
REMARK   87  A    between atoms: _209  and  MG_664
REMARK   88  A    between atoms: _211  and  _213
REMARK   89  A    between atoms: _213  and  _214
REMARK   90  A    between atoms: _216  and  _218
REMARK   91  A    between atoms: _218  and  _219
REMARK   92  A    between atoms: _218  and  _221
REMARK   93  A    between atoms: _221  and  _222
REMARK   94  A    between atoms: _224  and  _226
REMARK   95  A    between atoms: _226  and  _227
REMARK   96  A    between atoms: _230  and  _232
REMARK   97  A    between atoms: _232  and  _233
REMARK   98  A    between atoms: _232  and  _235
REMARK   99  A    between atoms: _235  and  _236
REMARK  100  A    between atoms: _241  and  _243
REMARK  101  A    between atoms: _243  and  _244
REMARK  102  A    between atoms: _243  and  _246
REMARK  103  A    between atoms: _246  and  _247
REMARK  104  A    between atoms: _252  and  _253
REMARK  105  A    between atoms: _255  and  _257
REMARK  106  A    between atoms: _257  and  _258
REMARK  107  A    between atoms: _257  and  _260
REMARK  108  A    between atoms: _260  and  _261
REMARK  109  A    between atoms: _264  and  _266
REMARK  110  A    between atoms: _266  and  _267
REMARK  111  A    between atoms: _266  and  _269
REMARK  112  A    between atoms: _269  and  _270
REMARK  113  A    between atoms: _270  and  _271
REMARK  114  A    between atoms: _273  and  _275
REMARK  115  A    between atoms: _275  and  _276
REMARK  116  A    between atoms: _275  and  _278
REMARK  117  A    between atoms: _278  and  _279
REMARK  118  A    between atoms: _284  and  _286
REMARK  119  A    between atoms: _286  and  _287
REMARK  120  A    between atoms: _286  and  _289
REMARK  121  A    between atoms: _289  and  _290
REMARK  122  A    between atoms: _290  and  _291
REMARK  123  A    between atoms: _290  and  _292
REMARK  124  A    between atoms: _291  and  MG_664
REMARK  125  A    between atoms: _295  and  _297
REMARK  126  A    between atoms: _297  and  _298
REMARK  127  A    between atoms: _300  and  _302
REMARK  128  A    between atoms: _302  and  _303
REMARK  129  A    between atoms: _302  and  _305
REMARK  130  A    between atoms: _305  and  _306
REMARK  131  A    between atoms: _309  and  _311
REMARK  132  A    between atoms: _311  and  _312
REMARK  133  A    between atoms: _311  and  _314
REMARK  134  A    between atoms: _314  and  _315
REMARK  135  A    between atoms: _320  and  _321
REMARK  136  A    between atoms: _323  and  _325
REMARK  137  A    between atoms: _325  and  _326
REMARK  138  A    between atoms: _328  and  _330
REMARK  139  A    between atoms: _330  and  _331
REMARK  140  A    between atoms: _334  and  _336
REMARK  141  A    between atoms: _336  and  _337
REMARK  142  A    between atoms: _336  and  _339
REMARK  143  A    between atoms: _339  and  _340
REMARK  144  A    between atoms: _343  and  _345
REMARK  145  A    between atoms: _345  and  _346
REMARK  146  A    between atoms: _345  and  _348
REMARK  147  A    between atoms: _348  and  _349
REMARK  148  A    between atoms: _349  and  _350
REMARK  149  A    between atoms: _350  and  _351
REMARK  150  A    between atoms: _360  and  _362
REMARK  151  A    between atoms: _362  and  _363
REMARK  152  A    between atoms: _362  and  _365
REMARK  153  A    between atoms: _365  and  _366
REMARK  154  A    between atoms: _376  and  _378
REMARK  155  A    between atoms: _378  and  _379
REMARK  156  A    between atoms: _378  and  _381
REMARK  157  A    between atoms: _381  and  _382
REMARK  158  A    between atoms: _388  and  _390
REMARK  159  A    between atoms: _390  and  _391
REMARK  160  A    between atoms: _394  and  _396
REMARK  161  A    between atoms: _396  and  _397
REMARK  162  A    between atoms: _399  and  _401
REMARK  163  A    between atoms: _401  and  _402
REMARK  164  A    between atoms: _401  and  _404
REMARK  165  A    between atoms: _404  and  _405
REMARK  166  A    between atoms: _408  and  _410
REMARK  167  A    between atoms: _410  and  _411
REMARK  168  A    between atoms: _410  and  _413
REMARK  169  A    between atoms: _416  and  _418
REMARK  170  A    between atoms: _418  and  _419
REMARK  171  A    between atoms: _418  and  _421
REMARK  172  A    between atoms: _421  and  _422
REMARK  173  A    between atoms: _428  and  _430
REMARK  174  A    between atoms: _430  and  _431
REMARK  175  A    between atoms: _430  and  _433
REMARK  176  A    between atoms: _433  and  _434
REMARK  177  A    between atoms: _437  and  _439
REMARK  178  A    between atoms: _439  and  _440
REMARK  179  A    between atoms: _439  and  _442
REMARK  180  A    between atoms: _445  and  _447
REMARK  181  A    between atoms: _447  and  _448
REMARK  182  A    between atoms: _447  and  _450
REMARK  183  A    between atoms: _450  and  _451
REMARK  184  A    between atoms: _457  and  _458
REMARK  185  A    between atoms: _463  and  _465
REMARK  186  A    between atoms: _465  and  _466
REMARK  187  A    between atoms: _468  and  _470
REMARK  188  A    between atoms: _470  and  _471
REMARK  189  A    between atoms: _470  and  _473
REMARK  190  A    between atoms: _473  and  _474
REMARK  191  A    between atoms: _476  and  _478
REMARK  192  A    between atoms: _478  and  _479
REMARK  193  A    between atoms: _478  and  _481
REMARK  194  A    between atoms: _481  and  _482
REMARK  195  A    between atoms: _487  and  _489
REMARK  196  A    between atoms: _489  and  _490
REMARK  197  A    between atoms: _489  and  _492
REMARK  198  A    between atoms: _492  and  _493
REMARK  199  A    between atoms: _493  and  _494
REMARK  200  A    between atoms: _497  and  _499
REMARK  201  A    between atoms: _499  and  _500
REMARK  202  A    between atoms: _499  and  _502
REMARK  203  A    between atoms: _502  and  _503
REMARK  204  A    between atoms: _506  and  _508
REMARK  205  A    between atoms: _508  and  _509
REMARK  206  A    between atoms: _508  and  _511
REMARK  207  A    between atoms: _511  and  _512
REMARK  208  A    between atoms: _515  and  _517
REMARK  209  A    between atoms: _517  and  _518
REMARK  210  A    between atoms: _521  and  _523
REMARK  211  A    between atoms: _523  and  _524
REMARK  212  A    between atoms: _523  and  _526
REMARK  213  A    between atoms: _526  and  _527
REMARK  214  A    between atoms: _530  and  _532
REMARK  215  A    between atoms: _532  and  _533
REMARK  216  A    between atoms: _532  and  _535
REMARK  217  A    between atoms: _535  and  _536
REMARK  218  A    between atoms: _536  and  _537
REMARK  219  A    between atoms: _542  and  _544
REMARK  220  A    between atoms: _544  and  _545
REMARK  221  A    between atoms: _544  and  _547
REMARK  222  A    between atoms: _547  and  _548
REMARK  223  A    between atoms: _548  and  _549
REMARK  224  A    between atoms: _552  and  _554
REMARK  225  A    between atoms: _554  and  _555
REMARK  226  A    between atoms: _558  and  _560
REMARK  227  A    between atoms: _560  and  _561
REMARK  228  A    between atoms: _560  and  _563
REMARK  229  A    between atoms: _563  and  _564
REMARK  230  A    between atoms: _567  and  _569
REMARK  231  A    between atoms: _569  and  _570
REMARK  232  A    between atoms: _569  and  _572
REMARK  233  A    between atoms: _572  and  _573
REMARK  234  A    between atoms: _578  and  _580
REMARK  235  A    between atoms: _580  and  _581
REMARK  236  A    between atoms: _580  and  _583
REMARK  237  A    between atoms: _583  and  _584
REMARK  238  A    between atoms: _586  and  _588
REMARK  239  A    between atoms: _588  and  _589
REMARK  240  A    between atoms: _592  and  _594
REMARK  241  A    between atoms: _594  and  _595
REMARK  242  A    between atoms: _598  and  _600
REMARK  243  A    between atoms: _600  and  _601
REMARK  244  A    between atoms: _603  and  _605
REMARK  245  A    between atoms: _605  and  _606
REMARK  246  A    between atoms: _605  and  _608
REMARK  247  A    between atoms: _608  and  _609
REMARK  248  A    between atoms: _612  and  _614
REMARK  249  A    between atoms: _614  and  _615
REMARK  250  A    between atoms: _617  and  _619
REMARK  251  A    between atoms: _619  and  _620
REMARK  252  A    between atoms: _619  and  _622
REMARK  253  A    between atoms: _622  and  _623
REMARK  254  A    between atoms: _628  and  _630
REMARK  255  A    between atoms: _630  and  _631
REMARK  256  A    between atoms: _634  and  _636
REMARK  257  A    between atoms: _636  and  _637
REMARK  258  A    between atoms: _636  and  _639
REMARK  259  A    between atoms: _639  and  _640
REMARK  260  A    between atoms: _640  and  _641
REMARK  261  A    between atoms: _646  and  _648
REMARK  262  A    between atoms: _648  and  _649
REMARK  263  A    between atoms: _648  and  _651
REMARK  264  A    between atoms: _651  and  _652
REMARK  265  A    between atoms: _655  and  _657
REMARK  266  A    between atoms: _657  and  _658
REMARK  267  A    between atoms: _657  and  _660
REMARK  268  A    between atoms: _660  and  _661
REMARK                            x       y       z     vdW  Elec       q    Type
REMARK                         _______ _______ _______ _____ _____    ______ ____
ROOT
ATOM      1  O   HOH     1     105.648  47.441  83.821  0.00  0.00    +0.000 OA
ENDROOT
TORSDOF 0
REMARK  Name = ../refined-set-2016/3fzn/3fzn_pocket.pdb
REMARK  268 active torsions:
REMARK  status: ('A' for Active; 'I' for Inactive)
REMARK    1  A    between atoms: _1  and  _3
REMARK    2  A    between atoms: _3  and  _4
REMARK    3  A    between atoms: _6  and  _8
REMARK    4  A    between atoms: _8  and  _9
REMARK    5  A    between atoms: _8  and  _11
REMARK    6  A    between atoms: _11  and  _12
REMARK    7  A    between atoms: _17  and  _19
REMARK    8  A    between atoms: _19  and  _20
REMARK    9  A    between atoms: _19  and  _22
REMARK   10  A    between atoms: _22  and  _23
REMARK   11  A    between atoms: _25  and  _27
REMARK   12  A    between atoms: _27  and  _28
REMARK   13  A    between atoms: _27  and  _30
REMARK   14  A    between atoms: _30  and  _31
REMARK   15  A    between atoms: _36  and  _38
REMARK   16  A    between atoms: _38  and  _39
REMARK   17  A    between atoms: _38  and  _41
REMARK   18  A    between atoms: _41  and  _42
REMARK   19  A    between atoms: _42  and  _43
REMARK   20  A    between atoms: _49  and  _50
REMARK   21  A    between atoms: _55  and  _57
REMARK   22  A    between atoms: _57  and  _58
REMARK   23  A    between atoms: _57  and  _60
REMARK   24  A    between atoms: _60  and  _61
REMARK   25  A    between atoms: _66  and  _68
REMARK   26  A    between atoms: _68  and  _69
REMARK   27  A    between atoms: _68  and  _71
REMARK   28  A    between atoms: _71  and  _72
REMARK   29  A    between atoms: _72  and  _73
REMARK   30  A    between atoms: _76  and  _78
REMARK   31  A    between atoms: _78  and  _79
REMARK   32  A    between atoms: _78  and  _81
REMARK   33  A    between atoms: _81  and  _82
REMARK   34  A    between atoms: _84  and  _86
REMARK   35  A    between atoms: _86  and  _87
REMARK   36  A    between atoms: _86  and  _89
REMARK   37  A    between atoms: _89  and  _90
REMARK   38  A    between atoms: _93  and  _95
REMARK   39  A    between atoms: _95  and  _96
REMARK   40  A    between atoms: _95  and  _98
REMARK   41  A    between atoms: _98  and  _99
REMARK   42  A    between atoms: _101  and  _103
REMARK   43  A    between atoms: _103  and  _104
REMARK   44  A    between atoms: _103  and  _106
REMARK   45  A    between atoms: _106  and  _107
REMARK   46  A    between atoms: _110  and  _112
REMARK   47  A    between atoms: _112  and  _113
REMARK   48  A    between atoms: _112  and  _115
REMARK   49  A    between atoms: _115  and  _116
REMARK   50  A    between atoms: _119  and  _121
REMARK   51  A    between atoms: _121  and  _122
REMARK   52  A    between atoms: _121  and  _124
REMARK   53  A    between atoms: _124  and  _125
REMARK   54  A    between atoms: _131  and  _133
REMARK   55  A    between atoms: _133  and  _134
REMARK   56  A    between atoms: _133  and  _136
REMARK   57  A    between atoms: _138  and  _140
REMARK   58  A    between atoms: _140  and  _141
REMARK   59  A    between atoms: _144  and  _146
REMARK   60  A    between atoms: _146  and  _147
REMARK   61  A    between atoms: _149  and  _151
REMARK   62  A    between atoms: _151  and  _152
REMARK   63  A    between atoms: _154  and  _156
REMARK   64  A    between atoms: _156  and  _157
REMARK   65  A    between atoms: _156  and  _159
REMARK   66  A    between atoms: _159  and  _160
REMARK   67  A    between atoms: _163  and  _165
REMARK   68  A    between atoms: _165  and  _166
REMARK   69  A    between atoms: _168  and  _170
REMARK   70  A    between atoms: _170  and  _171
REMARK   71  A    between atoms: _170  and  _173
REMARK   72  A    between atoms: _173  and  _174
REMARK   73  A    between atoms: _180  and  _182
REMARK   74  A    between atoms: _182  and  _183
REMARK   75  A    between atoms: _182  and  _185
REMARK   76  A    between atoms: _188  and  _190
REMARK   77  A    between atoms: _190  and  _191
REMARK   78  A    between atoms: _190  and  _193
REMARK   79  A    between atoms: _193  and  _194
REMARK   80  A    between atoms: _197  and  _199
REMARK   81  A    between atoms: _199  and  _200
REMARK   82  A    between atoms: _202  and  _204
REMARK   83  A    between atoms: _204  and  _205
REMARK   84  A    between atoms: _204  and  _207
REMARK   85  A    between atoms: _207  and  _208
REMARK   86  A    between atoms: _208  and  _209
REMARK   87  A    between atoms: _209  and  MG_664
REMARK   88  A    between atoms: _211  and  _213
REMARK   89  A    between atoms: _213  and  _214
REMARK   90  A    between atoms: _216  and  _218
REMARK   91  A    between atoms: _218  and  _219
REMARK   92  A    between atoms: _218  and  _221
REMARK   93  A    between atoms: _221  and  _222
REMARK   94  A    between atoms: _224  and  _226
REMARK   95  A    between atoms: _226  and  _227
REMARK   96  A    between atoms: _230  and  _232
REMARK   97  A    between atoms: _232  and  _233
REMARK   98  A    between atoms: _232  and  _235
REMARK   99  A    between atoms: _235  and  _236
REMARK  100  A    between atoms: _241  and  _243
REMARK  101  A    between atoms: _243  and  _244
REMARK  102  A    between atoms: _243  and  _246
REMARK  103  A    between atoms: _246  and  _247
REMARK  104  A    between atoms: _252  and  _253
REMARK  105  A    between atoms: _255  and  _257
REMARK  106  A    between atoms: _257  and  _258
REMARK  107  A    between atoms: _257  and  _260
REMARK  108  A    between atoms: _260  and  _261
REMARK  109  A    between atoms: _264  and  _266
REMARK  110  A    between atoms: _266  and  _267
REMARK  111  A    between atoms: _266  and  _269
REMARK  112  A    between atoms: _269  and  _270
REMARK  113  A    between atoms: _270  and  _271
REMARK  114  A    between atoms: _273  and  _275
REMARK  115  A    between atoms: _275  and  _276
REMARK  116  A    between atoms: _275  and  _278
REMARK  117  A    between atoms: _278  and  _279
REMARK  118  A    between atoms: _284  and  _286
REMARK  119  A    between atoms: _286  and  _287
REMARK  120  A    between atoms: _286  and  _289
REMARK  121  A    between atoms: _289  and  _290
REMARK  122  A    between atoms: _290  and  _291
REMARK  123  A    between atoms: _290  and  _292
REMARK  124  A    between atoms: _291  and  MG_664
REMARK  125  A    between atoms: _295  and  _297
REMARK  126  A    between atoms: _297  and  _298
REMARK  127  A    between atoms: _300  and  _302
REMARK  128  A    between atoms: _302  and  _303
REMARK  129  A    between atoms: _302  and  _305
REMARK  130  A    between atoms: _305  and  _306
REMARK  131  A    between atoms: _309  and  _311
REMARK  132  A    between atoms: _311  and  _312
REMARK  133  A    between atoms: _311  and  _314
REMARK  134  A    between atoms: _314  and  _315
REMARK  135  A    between atoms: _320  and  _321
REMARK  136  A    between atoms: _323  and  _325
REMARK  137  A    between atoms: _325  and  _326
REMARK  138  A    between atoms: _328  and  _330
REMARK  139  A    between atoms: _330  and  _331
REMARK  140  A    between atoms: _334  and  _336
REMARK  141  A    between atoms: _336  and  _337
REMARK  142  A    between atoms: _336  and  _339
REMARK  143  A    between atoms: _339  and  _340
REMARK  144  A    between atoms: _343  and  _345
REMARK  145  A    between atoms: _345  and  _346
REMARK  146  A    between atoms: _345  and  _348
REMARK  147  A    between atoms: _348  and  _349
REMARK  148  A    between atoms: _349  and  _350
REMARK  149  A    between atoms: _350  and  _351
REMARK  150  A    between atoms: _360  and  _362
REMARK  151  A    between atoms: _362  and  _363
REMARK  152  A    between atoms: _362  and  _365
REMARK  153  A    between atoms: _365  and  _366
REMARK  154  A    between atoms: _376  and  _378
REMARK  155  A    between atoms: _378  and  _379
REMARK  156  A    between atoms: _378  and  _381
REMARK  157  A    between atoms: _381  and  _382
REMARK  158  A    between atoms: _388  and  _390
REMARK  159  A    between atoms: _390  and  _391
REMARK  160  A    between atoms: _394  and  _396
REMARK  161  A    between atoms: _396  and  _397
REMARK  162  A    between atoms: _399  and  _401
REMARK  163  A    between atoms: _401  and  _402
REMARK  164  A    between atoms: _401  and  _404
REMARK  165  A    between atoms: _404  and  _405
REMARK  166  A    between atoms: _408  and  _410
REMARK  167  A    between atoms: _410  and  _411
REMARK  168  A    between atoms: _410  and  _413
REMARK  169  A    between atoms: _416  and  _418
REMARK  170  A    between atoms: _418  and  _419
REMARK  171  A    between atoms: _418  and  _421
REMARK  172  A    between atoms: _421  and  _422
REMARK  173  A    between atoms: _428  and  _430
REMARK  174  A    between atoms: _430  and  _431
REMARK  175  A    between atoms: _430  and  _433
REMARK  176  A    between atoms: _433  and  _434
REMARK  177  A    between atoms: _437  and  _439
REMARK  178  A    between atoms: _439  and  _440
REMARK  179  A    between atoms: _439  and  _442
REMARK  180  A    between atoms: _445  and  _447
REMARK  181  A    between atoms: _447  and  _448
REMARK  182  A    between atoms: _447  and  _450
REMARK  183  A    between atoms: _450  and  _451
REMARK  184  A    between atoms: _457  and  _458
REMARK  185  A    between atoms: _463  and  _465
REMARK  186  A    between atoms: _465  and  _466
REMARK  187  A    between atoms: _468  and  _470
REMARK  188  A    between atoms: _470  and  _471
REMARK  189  A    between atoms: _470  and  _473
REMARK  190  A    between atoms: _473  and  _474
REMARK  191  A    between atoms: _476  and  _478
REMARK  192  A    between atoms: _478  and  _479
REMARK  193  A    between atoms: _478  and  _481
REMARK  194  A    between atoms: _481  and  _482
REMARK  195  A    between atoms: _487  and  _489
REMARK  196  A    between atoms: _489  and  _490
REMARK  197  A    between atoms: _489  and  _492
REMARK  198  A    between atoms: _492  and  _493
REMARK  199  A    between atoms: _493  and  _494
REMARK  200  A    between atoms: _497  and  _499
REMARK  201  A    between atoms: _499  and  _500
REMARK  202  A    between atoms: _499  and  _502
REMARK  203  A    between atoms: _502  and  _503
REMARK  204  A    between atoms: _506  and  _508
REMARK  205  A    between atoms: _508  and  _509
REMARK  206  A    between atoms: _508  and  _511
REMARK  207  A    between atoms: _511  and  _512
REMARK  208  A    between atoms: _515  and  _517
REMARK  209  A    between atoms: _517  and  _518
REMARK  210  A    between atoms: _521  and  _523
REMARK  211  A    between atoms: _523  and  _524
REMARK  212  A    between atoms: _523  and  _526
REMARK  213  A    between atoms: _526  and  _527
REMARK  214  A    between atoms: _530  and  _532
REMARK  215  A    between atoms: _532  and  _533
REMARK  216  A    between atoms: _532  and  _535
REMARK  217  A    between atoms: _535  and  _536
REMARK  218  A    between atoms: _536  and  _537
REMARK  219  A    between atoms: _542  and  _544
REMARK  220  A    between atoms: _544  and  _545
REMARK  221  A    between atoms: _544  and  _547
REMARK  222  A    between atoms: _547  and  _548
REMARK  223  A    between atoms: _548  and  _549
REMARK  224  A    between atoms: _552  and  _554
REMARK  225  A    between atoms: _554  and  _555
REMARK  226  A    between atoms: _558  and  _560
REMARK  227  A    between atoms: _560  and  _561
REMARK  228  A    between atoms: _560  and  _563
REMARK  229  A    between atoms: _563  and  _564
REMARK  230  A    between atoms: _567  and  _569
REMARK  231  A    between atoms: _569  and  _570
REMARK  232  A    between atoms: _569  and  _572
REMARK  233  A    between atoms: _572  and  _573
REMARK  234  A    between atoms: _578  and  _580
REMARK  235  A    between atoms: _580  and  _581
REMARK  236  A    between atoms: _580  and  _583
REMARK  237  A    between atoms: _583  and  _584
REMARK  238  A    between atoms: _586  and  _588
REMARK  239  A    between atoms: _588  and  _589
REMARK  240  A    between atoms: _592  and  _594
REMARK  241  A    between atoms: _594  and  _595
REMARK  242  A    between atoms: _598  and  _600
REMARK  243  A    between atoms: _600  and  _601
REMARK  244  A    between atoms: _603  and  _605
REMARK  245  A    between atoms: _605  and  _606
REMARK  246  A    between atoms: _605  and  _608
REMARK  247  A    between atoms: _608  and  _609
REMARK  248  A    between atoms: _612  and  _614
REMARK  249  A    between atoms: _614  and  _615
REMARK  250  A    between atoms: _617  and  _619
REMARK  251  A    between atoms: _619  and  _620
REMARK  252  A    between atoms: _619  and  _622
REMARK  253  A    between atoms: _622  and  _623
REMARK  254  A    between atoms: _628  and  _630
REMARK  255  A    between atoms: _630  and  _631
REMARK  256  A    between atoms: _634  and  _636
REMARK  257  A    between atoms: _636  and  _637
REMARK  258  A    between atoms: _636  and  _639
REMARK  259  A    between atoms: _639  and  _640
REMARK  260  A    between atoms: _640  and  _641
REMARK  261  A    between atoms: _646  and  _648
REMARK  262  A    between atoms: _648  and  _649
REMARK  263  A    between atoms: _648  and  _651
REMARK  264  A    between atoms: _651  and  _652
REMARK  265  A    between atoms: _655  and  _657
REMARK  266  A    between atoms: _657  and  _658
REMARK  267  A    between atoms: _657  and  _660
REMARK  268  A    between atoms: _660  and  _661
REMARK                            x       y       z     vdW  Elec       q    Type
REMARK                         _______ _______ _______ _____ _____    ______ ____
ROOT
ATOM      1  O   HOH     1     112.104  35.621 101.718  0.00  0.00    +0.000 OA
ENDROOT
TORSDOF 0
REMARK  Name = ../refined-set-2016/3fzn/3fzn_pocket.pdb
REMARK  268 active torsions:
REMARK  status: ('A' for Active; 'I' for Inactive)
REMARK    1  A    between atoms: _1  and  _3
REMARK    2  A    between atoms: _3  and  _4
REMARK    3  A    between atoms: _6  and  _8
REMARK    4  A    between atoms: _8  and  _9
REMARK    5  A    between atoms: _8  and  _11
REMARK    6  A    between atoms: _11  and  _12
REMARK    7  A    between atoms: _17  and  _19
REMARK    8  A    between atoms: _19  and  _20
REMARK    9  A    between atoms: _19  and  _22
REMARK   10  A    between atoms: _22  and  _23
REMARK   11  A    between atoms: _25  and  _27
REMARK   12  A    between atoms: _27  and  _28
REMARK   13  A    between atoms: _27  and  _30
REMARK   14  A    between atoms: _30  and  _31
REMARK   15  A    between atoms: _36  and  _38
REMARK   16  A    between atoms: _38  and  _39
REMARK   17  A    between atoms: _38  and  _41
REMARK   18  A    between atoms: _41  and  _42
REMARK   19  A    between atoms: _42  and  _43
REMARK   20  A    between atoms: _49  and  _50
REMARK   21  A    between atoms: _55  and  _57
REMARK   22  A    between atoms: _57  and  _58
REMARK   23  A    between atoms: _57  and  _60
REMARK   24  A    between atoms: _60  and  _61
REMARK   25  A    between atoms: _66  and  _68
REMARK   26  A    between atoms: _68  and  _69
REMARK   27  A    between atoms: _68  and  _71
REMARK   28  A    between atoms: _71  and  _72
REMARK   29  A    between atoms: _72  and  _73
REMARK   30  A    between atoms: _76  and  _78
REMARK   31  A    between atoms: _78  and  _79
REMARK   32  A    between atoms: _78  and  _81
REMARK   33  A    between atoms: _81  and  _82
REMARK   34  A    between atoms: _84  and  _86
REMARK   35  A    between atoms: _86  and  _87
REMARK   36  A    between atoms: _86  and  _89
REMARK   37  A    between atoms: _89  and  _90
REMARK   38  A    between atoms: _93  and  _95
REMARK   39  A    between atoms: _95  and  _96
REMARK   40  A    between atoms: _95  and  _98
REMARK   41  A    between atoms: _98  and  _99
REMARK   42  A    between atoms: _101  and  _103
REMARK   43  A    between atoms: _103  and  _104
REMARK   44  A    between atoms: _103  and  _106
REMARK   45  A    between atoms: _106  and  _107
REMARK   46  A    between atoms: _110  and  _112
REMARK   47  A    between atoms: _112  and  _113
REMARK   48  A    between atoms: _112  and  _115
REMARK   49  A    between atoms: _115  and  _116
REMARK   50  A    between atoms: _119  and  _121
REMARK   51  A    between atoms: _121  and  _122
REMARK   52  A    between atoms: _121  and  _124
REMARK   53  A    between atoms: _124  and  _125
REMARK   54  A    between atoms: _131  and  _133
REMARK   55  A    between atoms: _133  and  _134
REMARK   56  A    between atoms: _133  and  _136
REMARK   57  A    between atoms: _138  and  _140
REMARK   58  A    between atoms: _140  and  _141
REMARK   59  A    between atoms: _144  and  _146
REMARK   60  A    between atoms: _146  and  _147
REMARK   61  A    between atoms: _149  and  _151
REMARK   62  A    between atoms: _151  and  _152
REMARK   63  A    between atoms: _154  and  _156
REMARK   64  A    between atoms: _156  and  _157
REMARK   65  A    between atoms: _156  and  _159
REMARK   66  A    between atoms: _159  and  _160
REMARK   67  A    between atoms: _163  and  _165
REMARK   68  A    between atoms: _165  and  _166
REMARK   69  A    between atoms: _168  and  _170
REMARK   70  A    between atoms: _170  and  _171
REMARK   71  A    between atoms: _170  and  _173
REMARK   72  A    between atoms: _173  and  _174
REMARK   73  A    between atoms: _180  and  _182
REMARK   74  A    between atoms: _182  and  _183
REMARK   75  A    between atoms: _182  and  _185
REMARK   76  A    between atoms: _188  and  _190
REMARK   77  A    between atoms: _190  and  _191
REMARK   78  A    between atoms: _190  and  _193
REMARK   79  A    between atoms: _193  and  _194
REMARK   80  A    between atoms: _197  and  _199
REMARK   81  A    between atoms: _199  and  _200
REMARK   82  A    between atoms: _202  and  _204
REMARK   83  A    between atoms: _204  and  _205
REMARK   84  A    between atoms: _204  and  _207
REMARK   85  A    between atoms: _207  and  _208
REMARK   86  A    between atoms: _208  and  _209
REMARK   87  A    between atoms: _209  and  MG_664
REMARK   88  A    between atoms: _211  and  _213
REMARK   89  A    between atoms: _213  and  _214
REMARK   90  A    between atoms: _216  and  _218
REMARK   91  A    between atoms: _218  and  _219
REMARK   92  A    between atoms: _218  and  _221
REMARK   93  A    between atoms: _221  and  _222
REMARK   94  A    between atoms: _224  and  _226
REMARK   95  A    between atoms: _226  and  _227
REMARK   96  A    between atoms: _230  and  _232
REMARK   97  A    between atoms: _232  and  _233
REMARK   98  A    between atoms: _232  and  _235
REMARK   99  A    between atoms: _235  and  _236
REMARK  100  A    between atoms: _241  and  _243
REMARK  101  A    between atoms: _243  and  _244
REMARK  102  A    between atoms: _243  and  _246
REMARK  103  A    between atoms: _246  and  _247
REMARK  104  A    between atoms: _252  and  _253
REMARK  105  A    between atoms: _255  and  _257
REMARK  106  A    between atoms: _257  and  _258
REMARK  107  A    between atoms: _257  and  _260
REMARK  108  A    between atoms: _260  and  _261
REMARK  109  A    between atoms: _264  and  _266
REMARK  110  A    between atoms: _266  and  _267
REMARK  111  A    between atoms: _266  and  _269
REMARK  112  A    between atoms: _269  and  _270
REMARK  113  A    between atoms: _270  and  _271
REMARK  114  A    between atoms: _273  and  _275
REMARK  115  A    between atoms: _275  and  _276
REMARK  116  A    between atoms: _275  and  _278
REMARK  117  A    between atoms: _278  and  _279
REMARK  118  A    between atoms: _284  and  _286
REMARK  119  A    between atoms: _286  and  _287
REMARK  120  A    between atoms: _286  and  _289
REMARK  121  A    between atoms: _289  and  _290
REMARK  122  A    between atoms: _290  and  _291
REMARK  123  A    between atoms: _290  and  _292
REMARK  124  A    between atoms: _291  and  MG_664
REMARK  125  A    between atoms: _295  and  _297
REMARK  126  A    between atoms: _297  and  _298
REMARK  127  A    between atoms: _300  and  _302
REMARK  128  A    between atoms: _302  and  _303
REMARK  129  A    between atoms: _302  and  _305
REMARK  130  A    between atoms: _305  and  _306
REMARK  131  A    between atoms: _309  and  _311
REMARK  132  A    between atoms: _311  and  _312
REMARK  133  A    between atoms: _311  and  _314
REMARK  134  A    between atoms: _314  and  _315
REMARK  135  A    between atoms: _320  and  _321
REMARK  136  A    between atoms: _323  and  _325
REMARK  137  A    between atoms: _325  and  _326
REMARK  138  A    between atoms: _328  and  _330
REMARK  139  A    between atoms: _330  and  _331
REMARK  140  A    between atoms: _334  and  _336
REMARK  141  A    between atoms: _336  and  _337
REMARK  142  A    between atoms: _336  and  _339
REMARK  143  A    between atoms: _339  and  _340
REMARK  144  A    between atoms: _343  and  _345
REMARK  145  A    between atoms: _345  and  _346
REMARK  146  A    between atoms: _345  and  _348
REMARK  147  A    between atoms: _348  and  _349
REMARK  148  A    between atoms: _349  and  _350
REMARK  149  A    between atoms: _350  and  _351
REMARK  150  A    between atoms: _360  and  _362
REMARK  151  A    between atoms: _362  and  _363
REMARK  152  A    between atoms: _362  and  _365
REMARK  153  A    between atoms: _365  and  _366
REMARK  154  A    between atoms: _376  and  _378
REMARK  155  A    between atoms: _378  and  _379
REMARK  156  A    between atoms: _378  and  _381
REMARK  157  A    between atoms: _381  and  _382
REMARK  158  A    between atoms: _388  and  _390
REMARK  159  A    between atoms: _390  and  _391
REMARK  160  A    between atoms: _394  and  _396
REMARK  161  A    between atoms: _396  and  _397
REMARK  162  A    between atoms: _399  and  _401
REMARK  163  A    between atoms: _401  and  _402
REMARK  164  A    between atoms: _401  and  _404
REMARK  165  A    between atoms: _404  and  _405
REMARK  166  A    between atoms: _408  and  _410
REMARK  167  A    between atoms: _410  and  _411
REMARK  168  A    between atoms: _410  and  _413
REMARK  169  A    between atoms: _416  and  _418
REMARK  170  A    between atoms: _418  and  _419
REMARK  171  A    between atoms: _418  and  _421
REMARK  172  A    between atoms: _421  and  _422
REMARK  173  A    between atoms: _428  and  _430
REMARK  174  A    between atoms: _430  and  _431
REMARK  175  A    between atoms: _430  and  _433
REMARK  176  A    between atoms: _433  and  _434
REMARK  177  A    between atoms: _437  and  _439
REMARK  178  A    between atoms: _439  and  _440
REMARK  179  A    between atoms: _439  and  _442
REMARK  180  A    between atoms: _445  and  _447
REMARK  181  A    between atoms: _447  and  _448
REMARK  182  A    between atoms: _447  and  _450
REMARK  183  A    between atoms: _450  and  _451
REMARK  184  A    between atoms: _457  and  _458
REMARK  185  A    between atoms: _463  and  _465
REMARK  186  A    between atoms: _465  and  _466
REMARK  187  A    between atoms: _468  and  _470
REMARK  188  A    between atoms: _470  and  _471
REMARK  189  A    between atoms: _470  and  _473
REMARK  190  A    between atoms: _473  and  _474
REMARK  191  A    between atoms: _476  and  _478
REMARK  192  A    between atoms: _478  and  _479
REMARK  193  A    between atoms: _478  and  _481
REMARK  194  A    between atoms: _481  and  _482
REMARK  195  A    between atoms: _487  and  _489
REMARK  196  A    between atoms: _489  and  _490
REMARK  197  A    between atoms: _489  and  _492
REMARK  198  A    between atoms: _492  and  _493
REMARK  199  A    between atoms: _493  and  _494
REMARK  200  A    between atoms: _497  and  _499
REMARK  201  A    between atoms: _499  and  _500
REMARK  202  A    between atoms: _499  and  _502
REMARK  203  A    between atoms: _502  and  _503
REMARK  204  A    between atoms: _506  and  _508
REMARK  205  A    between atoms: _508  and  _509
REMARK  206  A    between atoms: _508  and  _511
REMARK  207  A    between atoms: _511  and  _512
REMARK  208  A    between atoms: _515  and  _517
REMARK  209  A    between atoms: _517  and  _518
REMARK  210  A    between atoms: _521  and  _523
REMARK  211  A    between atoms: _523  and  _524
REMARK  212  A    between atoms: _523  and  _526
REMARK  213  A    between atoms: _526  and  _527
REMARK  214  A    between atoms: _530  and  _532
REMARK  215  A    between atoms: _532  and  _533
REMARK  216  A    between atoms: _532  and  _535
REMARK  217  A    between atoms: _535  and  _536
REMARK  218  A    between atoms: _536  and  _537
REMARK  219  A    between atoms: _542  and  _544
REMARK  220  A    between atoms: _544  and  _545
REMARK  221  A    between atoms: _544  and  _547
REMARK  222  A    between atoms: _547  and  _548
REMARK  223  A    between atoms: _548  and  _549
REMARK  224  A    between atoms: _552  and  _554
REMARK  225  A    between atoms: _554  and  _555
REMARK  226  A    between atoms: _558  and  _560
REMARK  227  A    between atoms: _560  and  _561
REMARK  228  A    between atoms: _560  and  _563
REMARK  229  A    between atoms: _563  and  _564
REMARK  230  A    between atoms: _567  and  _569
REMARK  231  A    between atoms: _569  and  _570
REMARK  232  A    between atoms: _569  and  _572
REMARK  233  A    between atoms: _572  and  _573
REMARK  234  A    between atoms: _578  and  _580
REMARK  235  A    between atoms: _580  and  _581
REMARK  236  A    between atoms: _580  and  _583
REMARK  237  A    between atoms: _583  and  _584
REMARK  238  A    between atoms: _586  and  _588
REMARK  239  A    between atoms: _588  and  _589
REMARK  240  A    between atoms: _592  and  _594
REMARK  241  A    between atoms: _594  and  _595
REMARK  242  A    between atoms: _598  and  _600
REMARK  243  A    between atoms: _600  and  _601
REMARK  244  A    between atoms: _603  and  _605
REMARK  245  A    between atoms: _605  and  _606
REMARK  246  A    between atoms: _605  and  _608
REMARK  247  A    between atoms: _608  and  _609
REMARK  248  A    between atoms: _612  and  _614
REMARK  249  A    between atoms: _614  and  _615
REMARK  250  A    between atoms: _617  and  _619
REMARK  251  A    between atoms: _619  and  _620
REMARK  252  A    between atoms: _619  and  _622
REMARK  253  A    between atoms: _622  and  _623
REMARK  254  A    between atoms: _628  and  _630
REMARK  255  A    between atoms: _630  and  _631
REMARK  256  A    between atoms: _634  and  _636
REMARK  257  A    between atoms: _636  and  _637
REMARK  258  A    between atoms: _636  and  _639
REMARK  259  A    between atoms: _639  and  _640
REMARK  260  A    between atoms: _640  and  _641
REMARK  261  A    between atoms: _646  and  _648
REMARK  262  A    between atoms: _648  and  _649
REMARK  263  A    between atoms: _648  and  _651
REMARK  264  A    between atoms: _651  and  _652
REMARK  265  A    between atoms: _655  and  _657
REMARK  266  A    between atoms: _657  and  _658
REMARK  267  A    between atoms: _657  and  _660
REMARK  268  A    between atoms: _660  and  _661
REMARK                            x       y       z     vdW  Elec       q    Type
REMARK                         _______ _______ _______ _____ _____    ______ ____
ROOT
ATOM      1  O   HOH     1     105.317  41.310 107.262  0.00  0.00    +0.000 OA
ENDROOT
TORSDOF 0
REMARK  Name = ../refined-set-2016/3fzn/3fzn_pocket.pdb
REMARK  268 active torsions:
REMARK  status: ('A' for Active; 'I' for Inactive)
REMARK    1  A    between atoms: _1  and  _3
REMARK    2  A    between atoms: _3  and  _4
REMARK    3  A    between atoms: _6  and  _8
REMARK    4  A    between atoms: _8  and  _9
REMARK    5  A    between atoms: _8  and  _11
REMARK    6  A    between atoms: _11  and  _12
REMARK    7  A    between atoms: _17  and  _19
REMARK    8  A    between atoms: _19  and  _20
REMARK    9  A    between atoms: _19  and  _22
REMARK   10  A    between atoms: _22  and  _23
REMARK   11  A    between atoms: _25  and  _27
REMARK   12  A    between atoms: _27  and  _28
REMARK   13  A    between atoms: _27  and  _30
REMARK   14  A    between atoms: _30  and  _31
REMARK   15  A    between atoms: _36  and  _38
REMARK   16  A    between atoms: _38  and  _39
REMARK   17  A    between atoms: _38  and  _41
REMARK   18  A    between atoms: _41  and  _42
REMARK   19  A    between atoms: _42  and  _43
REMARK   20  A    between atoms: _49  and  _50
REMARK   21  A    between atoms: _55  and  _57
REMARK   22  A    between atoms: _57  and  _58
REMARK   23  A    between atoms: _57  and  _60
REMARK   24  A    between atoms: _60  and  _61
REMARK   25  A    between atoms: _66  and  _68
REMARK   26  A    between atoms: _68  and  _69
REMARK   27  A    between atoms: _68  and  _71
REMARK   28  A    between atoms: _71  and  _72
REMARK   29  A    between atoms: _72  and  _73
REMARK   30  A    between atoms: _76  and  _78
REMARK   31  A    between atoms: _78  and  _79
REMARK   32  A    between atoms: _78  and  _81
REMARK   33  A    between atoms: _81  and  _82
REMARK   34  A    between atoms: _84  and  _86
REMARK   35  A    between atoms: _86  and  _87
REMARK   36  A    between atoms: _86  and  _89
REMARK   37  A    between atoms: _89  and  _90
REMARK   38  A    between atoms: _93  and  _95
REMARK   39  A    between atoms: _95  and  _96
REMARK   40  A    between atoms: _95  and  _98
REMARK   41  A    between atoms: _98  and  _99
REMARK   42  A    between atoms: _101  and  _103
REMARK   43  A    between atoms: _103  and  _104
REMARK   44  A    between atoms: _103  and  _106
REMARK   45  A    between atoms: _106  and  _107
REMARK   46  A    between atoms: _110  and  _112
REMARK   47  A    between atoms: _112  and  _113
REMARK   48  A    between atoms: _112  and  _115
REMARK   49  A    between atoms: _115  and  _116
REMARK   50  A    between atoms: _119  and  _121
REMARK   51  A    between atoms: _121  and  _122
REMARK   52  A    between atoms: _121  and  _124
REMARK   53  A    between atoms: _124  and  _125
REMARK   54  A    between atoms: _131  and  _133
REMARK   55  A    between atoms: _133  and  _134
REMARK   56  A    between atoms: _133  and  _136
REMARK   57  A    between atoms: _138  and  _140
REMARK   58  A    between atoms: _140  and  _141
REMARK   59  A    between atoms: _144  and  _146
REMARK   60  A    between atoms: _146  and  _147
REMARK   61  A    between atoms: _149  and  _151
REMARK   62  A    between atoms: _151  and  _152
REMARK   63  A    between atoms: _154  and  _156
REMARK   64  A    between atoms: _156  and  _157
REMARK   65  A    between atoms: _156  and  _159
REMARK   66  A    between atoms: _159  and  _160
REMARK   67  A    between atoms: _163  and  _165
REMARK   68  A    between atoms: _165  and  _166
REMARK   69  A    between atoms: _168  and  _170
REMARK   70  A    between atoms: _170  and  _171
REMARK   71  A    between atoms: _170  and  _173
REMARK   72  A    between atoms: _173  and  _174
REMARK   73  A    between atoms: _180  and  _182
REMARK   74  A    between atoms: _182  and  _183
REMARK   75  A    between atoms: _182  and  _185
REMARK   76  A    between atoms: _188  and  _190
REMARK   77  A    between atoms: _190  and  _191
REMARK   78  A    between atoms: _190  and  _193
REMARK   79  A    between atoms: _193  and  _194
REMARK   80  A    between atoms: _197  and  _199
REMARK   81  A    between atoms: _199  and  _200
REMARK   82  A    between atoms: _202  and  _204
REMARK   83  A    between atoms: _204  and  _205
REMARK   84  A    between atoms: _204  and  _207
REMARK   85  A    between atoms: _207  and  _208
REMARK   86  A    between atoms: _208  and  _209
REMARK   87  A    between atoms: _209  and  MG_664
REMARK   88  A    between atoms: _211  and  _213
REMARK   89  A    between atoms: _213  and  _214
REMARK   90  A    between atoms: _216  and  _218
REMARK   91  A    between atoms: _218  and  _219
REMARK   92  A    between atoms: _218  and  _221
REMARK   93  A    between atoms: _221  and  _222
REMARK   94  A    between atoms: _224  and  _226
REMARK   95  A    between atoms: _226  and  _227
REMARK   96  A    between atoms: _230  and  _232
REMARK   97  A    between atoms: _232  and  _233
REMARK   98  A    between atoms: _232  and  _235
REMARK   99  A    between atoms: _235  and  _236
REMARK  100  A    between atoms: _241  and  _243
REMARK  101  A    between atoms: _243  and  _244
REMARK  102  A    between atoms: _243  and  _246
REMARK  103  A    between atoms: _246  and  _247
REMARK  104  A    between atoms: _252  and  _253
REMARK  105  A    between atoms: _255  and  _257
REMARK  106  A    between atoms: _257  and  _258
REMARK  107  A    between atoms: _257  and  _260
REMARK  108  A    between atoms: _260  and  _261
REMARK  109  A    between atoms: _264  and  _266
REMARK  110  A    between atoms: _266  and  _267
REMARK  111  A    between atoms: _266  and  _269
REMARK  112  A    between atoms: _269  and  _270
REMARK  113  A    between atoms: _270  and  _271
REMARK  114  A    between atoms: _273  and  _275
REMARK  115  A    between atoms: _275  and  _276
REMARK  116  A    between atoms: _275  and  _278
REMARK  117  A    between atoms: _278  and  _279
REMARK  118  A    between atoms: _284  and  _286
REMARK  119  A    between atoms: _286  and  _287
REMARK  120  A    between atoms: _286  and  _289
REMARK  121  A    between atoms: _289  and  _290
REMARK  122  A    between atoms: _290  and  _291
REMARK  123  A    between atoms: _290  and  _292
REMARK  124  A    between atoms: _291  and  MG_664
REMARK  125  A    between atoms: _295  and  _297
REMARK  126  A    between atoms: _297  and  _298
REMARK  127  A    between atoms: _300  and  _302
REMARK  128  A    between atoms: _302  and  _303
REMARK  129  A    between atoms: _302  and  _305
REMARK  130  A    between atoms: _305  and  _306
REMARK  131  A    between atoms: _309  and  _311
REMARK  132  A    between atoms: _311  and  _312
REMARK  133  A    between atoms: _311  and  _314
REMARK  134  A    between atoms: _314  and  _315
REMARK  135  A    between atoms: _320  and  _321
REMARK  136  A    between atoms: _323  and  _325
REMARK  137  A    between atoms: _325  and  _326
REMARK  138  A    between atoms: _328  and  _330
REMARK  139  A    between atoms: _330  and  _331
REMARK  140  A    between atoms: _334  and  _336
REMARK  141  A    between atoms: _336  and  _337
REMARK  142  A    between atoms: _336  and  _339
REMARK  143  A    between atoms: _339  and  _340
REMARK  144  A    between atoms: _343  and  _345
REMARK  145  A    between atoms: _345  and  _346
REMARK  146  A    between atoms: _345  and  _348
REMARK  147  A    between atoms: _348  and  _349
REMARK  148  A    between atoms: _349  and  _350
REMARK  149  A    between atoms: _350  and  _351
REMARK  150  A    between atoms: _360  and  _362
REMARK  151  A    between atoms: _362  and  _363
REMARK  152  A    between atoms: _362  and  _365
REMARK  153  A    between atoms: _365  and  _366
REMARK  154  A    between atoms: _376  and  _378
REMARK  155  A    between atoms: _378  and  _379
REMARK  156  A    between atoms: _378  and  _381
REMARK  157  A    between atoms: _381  and  _382
REMARK  158  A    between atoms: _388  and  _390
REMARK  159  A    between atoms: _390  and  _391
REMARK  160  A    between atoms: _394  and  _396
REMARK  161  A    between atoms: _396  and  _397
REMARK  162  A    between atoms: _399  and  _401
REMARK  163  A    between atoms: _401  and  _402
REMARK  164  A    between atoms: _401  and  _404
REMARK  165  A    between atoms: _404  and  _405
REMARK  166  A    between atoms: _408  and  _410
REMARK  167  A    between atoms: _410  and  _411
REMARK  168  A    between atoms: _410  and  _413
REMARK  169  A    between atoms: _416  and  _418
REMARK  170  A    between atoms: _418  and  _419
REMARK  171  A    between atoms: _418  and  _421
REMARK  172  A    between atoms: _421  and  _422
REMARK  173  A    between atoms: _428  and  _430
REMARK  174  A    between atoms: _430  and  _431
REMARK  175  A    between atoms: _430  and  _433
REMARK  176  A    between atoms: _433  and  _434
REMARK  177  A    between atoms: _437  and  _439
REMARK  178  A    between atoms: _439  and  _440
REMARK  179  A    between atoms: _439  and  _442
REMARK  180  A    between atoms: _445  and  _447
REMARK  181  A    between atoms: _447  and  _448
REMARK  182  A    between atoms: _447  and  _450
REMARK  183  A    between atoms: _450  and  _451
REMARK  184  A    between atoms: _457  and  _458
REMARK  185  A    between atoms: _463  and  _465
REMARK  186  A    between atoms: _465  and  _466
REMARK  187  A    between atoms: _468  and  _470
REMARK  188  A    between atoms: _470  and  _471
REMARK  189  A    between atoms: _470  and  _473
REMARK  190  A    between atoms: _473  and  _474
REMARK  191  A    between atoms: _476  and  _478
REMARK  192  A    between atoms: _478  and  _479
REMARK  193  A    between atoms: _478  and  _481
REMARK  194  A    between atoms: _481  and  _482
REMARK  195  A    between atoms: _487  and  _489
REMARK  196  A    between atoms: _489  and  _490
REMARK  197  A    between atoms: _489  and  _492
REMARK  198  A    between atoms: _492  and  _493
REMARK  199  A    between atoms: _493  and  _494
REMARK  200  A    between atoms: _497  and  _499
REMARK  201  A    between atoms: _499  and  _500
REMARK  202  A    between atoms: _499  and  _502
REMARK  203  A    between atoms: _502  and  _503
REMARK  204  A    between atoms: _506  and  _508
REMARK  205  A    between atoms: _508  and  _509
REMARK  206  A    between atoms: _508  and  _511
REMARK  207  A    between atoms: _511  and  _512
REMARK  208  A    between atoms: _515  and  _517
REMARK  209  A    between atoms: _517  and  _518
REMARK  210  A    between atoms: _521  and  _523
REMARK  211  A    between atoms: _523  and  _524
REMARK  212  A    between atoms: _523  and  _526
REMARK  213  A    between atoms: _526  and  _527
REMARK  214  A    between atoms: _530  and  _532
REMARK  215  A    between atoms: _532  and  _533
REMARK  216  A    between atoms: _532  and  _535
REMARK  217  A    between atoms: _535  and  _536
REMARK  218  A    between atoms: _536  and  _537
REMARK  219  A    between atoms: _542  and  _544
REMARK  220  A    between atoms: _544  and  _545
REMARK  221  A    between atoms: _544  and  _547
REMARK  222  A    between atoms: _547  and  _548
REMARK  223  A    between atoms: _548  and  _549
REMARK  224  A    between atoms: _552  and  _554
REMARK  225  A    between atoms: _554  and  _555
REMARK  226  A    between atoms: _558  and  _560
REMARK  227  A    between atoms: _560  and  _561
REMARK  228  A    between atoms: _560  and  _563
REMARK  229  A    between atoms: _563  and  _564
REMARK  230  A    between atoms: _567  and  _569
REMARK  231  A    between atoms: _569  and  _570
REMARK  232  A    between atoms: _569  and  _572
REMARK  233  A    between atoms: _572  and  _573
REMARK  234  A    between atoms: _578  and  _580
REMARK  235  A    between atoms: _580  and  _581
REMARK  236  A    between atoms: _580  and  _583
REMARK  237  A    between atoms: _583  and  _584
REMARK  238  A    between atoms: _586  and  _588
REMARK  239  A    between atoms: _588  and  _589
REMARK  240  A    between atoms: _592  and  _594
REMARK  241  A    between atoms: _594  and  _595
REMARK  242  A    between atoms: _598  and  _600
REMARK  243  A    between atoms: _600  and  _601
REMARK  244  A    between atoms: _603  and  _605
REMARK  245  A    between atoms: _605  and  _606
REMARK  246  A    between atoms: _605  and  _608
REMARK  247  A    between atoms: _608  and  _609
REMARK  248  A    between atoms: _612  and  _614
REMARK  249  A    between atoms: _614  and  _615
REMARK  250  A    between atoms: _617  and  _619
REMARK  251  A    between atoms: _619  and  _620
REMARK  252  A    between atoms: _619  and  _622
REMARK  253  A    between atoms: _622  and  _623
REMARK  254  A    between atoms: _628  and  _630
REMARK  255  A    between atoms: _630  and  _631
REMARK  256  A    between atoms: _634  and  _636
REMARK  257  A    between atoms: _636  and  _637
REMARK  258  A    between atoms: _636  and  _639
REMARK  259  A    between atoms: _639  and  _640
REMARK  260  A    between atoms: _640  and  _641
REMARK  261  A    between atoms: _646  and  _648
REMARK  262  A    between atoms: _648  and  _649
REMARK  263  A    between atoms: _648  and  _651
REMARK  264  A    between atoms: _651  and  _652
REMARK  265  A    between atoms: _655  and  _657
REMARK  266  A    between atoms: _657  and  _658
REMARK  267  A    between atoms: _657  and  _660
REMARK  268  A    between atoms: _660  and  _661
REMARK                            x       y       z     vdW  Elec       q    Type
REMARK                         _______ _______ _______ _____ _____    ______ ____
ROOT
ATOM      1  O   HOH     1     114.455  36.881 102.227  0.00  0.00    +0.000 OA
ENDROOT
TORSDOF 0
REMARK  Name = ../refined-set-2016/3fzn/3fzn_pocket.pdb
REMARK  268 active torsions:
REMARK  status: ('A' for Active; 'I' for Inactive)
REMARK    1  A    between atoms: _1  and  _3
REMARK    2  A    between atoms: _3  and  _4
REMARK    3  A    between atoms: _6  and  _8
REMARK    4  A    between atoms: _8  and  _9
REMARK    5  A    between atoms: _8  and  _11
REMARK    6  A    between atoms: _11  and  _12
REMARK    7  A    between atoms: _17  and  _19
REMARK    8  A    between atoms: _19  and  _20
REMARK    9  A    between atoms: _19  and  _22
REMARK   10  A    between atoms: _22  and  _23
REMARK   11  A    between atoms: _25  and  _27
REMARK   12  A    between atoms: _27  and  _28
REMARK   13  A    between atoms: _27  and  _30
REMARK   14  A    between atoms: _30  and  _31
REMARK   15  A    between atoms: _36  and  _38
REMARK   16  A    between atoms: _38  and  _39
REMARK   17  A    between atoms: _38  and  _41
REMARK   18  A    between atoms: _41  and  _42
REMARK   19  A    between atoms: _42  and  _43
REMARK   20  A    between atoms: _49  and  _50
REMARK   21  A    between atoms: _55  and  _57
REMARK   22  A    between atoms: _57  and  _58
REMARK   23  A    between atoms: _57  and  _60
REMARK   24  A    between atoms: _60  and  _61
REMARK   25  A    between atoms: _66  and  _68
REMARK   26  A    between atoms: _68  and  _69
REMARK   27  A    between atoms: _68  and  _71
REMARK   28  A    between atoms: _71  and  _72
REMARK   29  A    between atoms: _72  and  _73
REMARK   30  A    between atoms: _76  and  _78
REMARK   31  A    between atoms: _78  and  _79
REMARK   32  A    between atoms: _78  and  _81
REMARK   33  A    between atoms: _81  and  _82
REMARK   34  A    between atoms: _84  and  _86
REMARK   35  A    between atoms: _86  and  _87
REMARK   36  A    between atoms: _86  and  _89
REMARK   37  A    between atoms: _89  and  _90
REMARK   38  A    between atoms: _93  and  _95
REMARK   39  A    between atoms: _95  and  _96
REMARK   40  A    between atoms: _95  and  _98
REMARK   41  A    between atoms: _98  and  _99
REMARK   42  A    between atoms: _101  and  _103
REMARK   43  A    between atoms: _103  and  _104
REMARK   44  A    between atoms: _103  and  _106
REMARK   45  A    between atoms: _106  and  _107
REMARK   46  A    between atoms: _110  and  _112
REMARK   47  A    between atoms: _112  and  _113
REMARK   48  A    between atoms: _112  and  _115
REMARK   49  A    between atoms: _115  and  _116
REMARK   50  A    between atoms: _119  and  _121
REMARK   51  A    between atoms: _121  and  _122
REMARK   52  A    between atoms: _121  and  _124
REMARK   53  A    between atoms: _124  and  _125
REMARK   54  A    between atoms: _131  and  _133
REMARK   55  A    between atoms: _133  and  _134
REMARK   56  A    between atoms: _133  and  _136
REMARK   57  A    between atoms: _138  and  _140
REMARK   58  A    between atoms: _140  and  _141
REMARK   59  A    between atoms: _144  and  _146
REMARK   60  A    between atoms: _146  and  _147
REMARK   61  A    between atoms: _149  and  _151
REMARK   62  A    between atoms: _151  and  _152
REMARK   63  A    between atoms: _154  and  _156
REMARK   64  A    between atoms: _156  and  _157
REMARK   65  A    between atoms: _156  and  _159
REMARK   66  A    between atoms: _159  and  _160
REMARK   67  A    between atoms: _163  and  _165
REMARK   68  A    between atoms: _165  and  _166
REMARK   69  A    between atoms: _168  and  _170
REMARK   70  A    between atoms: _170  and  _171
REMARK   71  A    between atoms: _170  and  _173
REMARK   72  A    between atoms: _173  and  _174
REMARK   73  A    between atoms: _180  and  _182
REMARK   74  A    between atoms: _182  and  _183
REMARK   75  A    between atoms: _182  and  _185
REMARK   76  A    between atoms: _188  and  _190
REMARK   77  A    between atoms: _190  and  _191
REMARK   78  A    between atoms: _190  and  _193
REMARK   79  A    between atoms: _193  and  _194
REMARK   80  A    between atoms: _197  and  _199
REMARK   81  A    between atoms: _199  and  _200
REMARK   82  A    between atoms: _202  and  _204
REMARK   83  A    between atoms: _204  and  _205
REMARK   84  A    between atoms: _204  and  _207
REMARK   85  A    between atoms: _207  and  _208
REMARK   86  A    between atoms: _208  and  _209
REMARK   87  A    between atoms: _209  and  MG_664
REMARK   88  A    between atoms: _211  and  _213
REMARK   89  A    between atoms: _213  and  _214
REMARK   90  A    between atoms: _216  and  _218
REMARK   91  A    between atoms: _218  and  _219
REMARK   92  A    between atoms: _218  and  _221
REMARK   93  A    between atoms: _221  and  _222
REMARK   94  A    between atoms: _224  and  _226
REMARK   95  A    between atoms: _226  and  _227
REMARK   96  A    between atoms: _230  and  _232
REMARK   97  A    between atoms: _232  and  _233
REMARK   98  A    between atoms: _232  and  _235
REMARK   99  A    between atoms: _235  and  _236
REMARK  100  A    between atoms: _241  and  _243
REMARK  101  A    between atoms: _243  and  _244
REMARK  102  A    between atoms: _243  and  _246
REMARK  103  A    between atoms: _246  and  _247
REMARK  104  A    between atoms: _252  and  _253
REMARK  105  A    between atoms: _255  and  _257
REMARK  106  A    between atoms: _257  and  _258
REMARK  107  A    between atoms: _257  and  _260
REMARK  108  A    between atoms: _260  and  _261
REMARK  109  A    between atoms: _264  and  _266
REMARK  110  A    between atoms: _266  and  _267
REMARK  111  A    between atoms: _266  and  _269
REMARK  112  A    between atoms: _269  and  _270
REMARK  113  A    between atoms: _270  and  _271
REMARK  114  A    between atoms: _273  and  _275
REMARK  115  A    between atoms: _275  and  _276
REMARK  116  A    between atoms: _275  and  _278
REMARK  117  A    between atoms: _278  and  _279
REMARK  118  A    between atoms: _284  and  _286
REMARK  119  A    between atoms: _286  and  _287
REMARK  120  A    between atoms: _286  and  _289
REMARK  121  A    between atoms: _289  and  _290
REMARK  122  A    between atoms: _290  and  _291
REMARK  123  A    between atoms: _290  and  _292
REMARK  124  A    between atoms: _291  and  MG_664
REMARK  125  A    between atoms: _295  and  _297
REMARK  126  A    between atoms: _297  and  _298
REMARK  127  A    between atoms: _300  and  _302
REMARK  128  A    between atoms: _302  and  _303
REMARK  129  A    between atoms: _302  and  _305
REMARK  130  A    between atoms: _305  and  _306
REMARK  131  A    between atoms: _309  and  _311
REMARK  132  A    between atoms: _311  and  _312
REMARK  133  A    between atoms: _311  and  _314
REMARK  134  A    between atoms: _314  and  _315
REMARK  135  A    between atoms: _320  and  _321
REMARK  136  A    between atoms: _323  and  _325
REMARK  137  A    between atoms: _325  and  _326
REMARK  138  A    between atoms: _328  and  _330
REMARK  139  A    between atoms: _330  and  _331
REMARK  140  A    between atoms: _334  and  _336
REMARK  141  A    between atoms: _336  and  _337
REMARK  142  A    between atoms: _336  and  _339
REMARK  143  A    between atoms: _339  and  _340
REMARK  144  A    between atoms: _343  and  _345
REMARK  145  A    between atoms: _345  and  _346
REMARK  146  A    between atoms: _345  and  _348
REMARK  147  A    between atoms: _348  and  _349
REMARK  148  A    between atoms: _349  and  _350
REMARK  149  A    between atoms: _350  and  _351
REMARK  150  A    between atoms: _360  and  _362
REMARK  151  A    between atoms: _362  and  _363
REMARK  152  A    between atoms: _362  and  _365
REMARK  153  A    between atoms: _365  and  _366
REMARK  154  A    between atoms: _376  and  _378
REMARK  155  A    between atoms: _378  and  _379
REMARK  156  A    between atoms: _378  and  _381
REMARK  157  A    between atoms: _381  and  _382
REMARK  158  A    between atoms: _388  and  _390
REMARK  159  A    between atoms: _390  and  _391
REMARK  160  A    between atoms: _394  and  _396
REMARK  161  A    between atoms: _396  and  _397
REMARK  162  A    between atoms: _399  and  _401
REMARK  163  A    between atoms: _401  and  _402
REMARK  164  A    between atoms: _401  and  _404
REMARK  165  A    between atoms: _404  and  _405
REMARK  166  A    between atoms: _408  and  _410
REMARK  167  A    between atoms: _410  and  _411
REMARK  168  A    between atoms: _410  and  _413
REMARK  169  A    between atoms: _416  and  _418
REMARK  170  A    between atoms: _418  and  _419
REMARK  171  A    between atoms: _418  and  _421
REMARK  172  A    between atoms: _421  and  _422
REMARK  173  A    between atoms: _428  and  _430
REMARK  174  A    between atoms: _430  and  _431
REMARK  175  A    between atoms: _430  and  _433
REMARK  176  A    between atoms: _433  and  _434
REMARK  177  A    between atoms: _437  and  _439
REMARK  178  A    between atoms: _439  and  _440
REMARK  179  A    between atoms: _439  and  _442
REMARK  180  A    between atoms: _445  and  _447
REMARK  181  A    between atoms: _447  and  _448
REMARK  182  A    between atoms: _447  and  _450
REMARK  183  A    between atoms: _450  and  _451
REMARK  184  A    between atoms: _457  and  _458
REMARK  185  A    between atoms: _463  and  _465
REMARK  186  A    between atoms: _465  and  _466
REMARK  187  A    between atoms: _468  and  _470
REMARK  188  A    between atoms: _470  and  _471
REMARK  189  A    between atoms: _470  and  _473
REMARK  190  A    between atoms: _473  and  _474
REMARK  191  A    between atoms: _476  and  _478
REMARK  192  A    between atoms: _478  and  _479
REMARK  193  A    between atoms: _478  and  _481
REMARK  194  A    between atoms: _481  and  _482
REMARK  195  A    between atoms: _487  and  _489
REMARK  196  A    between atoms: _489  and  _490
REMARK  197  A    between atoms: _489  and  _492
REMARK  198  A    between atoms: _492  and  _493
REMARK  199  A    between atoms: _493  and  _494
REMARK  200  A    between atoms: _497  and  _499
REMARK  201  A    between atoms: _499  and  _500
REMARK  202  A    between atoms: _499  and  _502
REMARK  203  A    between atoms: _502  and  _503
REMARK  204  A    between atoms: _506  and  _508
REMARK  205  A    between atoms: _508  and  _509
REMARK  206  A    between atoms: _508  and  _511
REMARK  207  A    between atoms: _511  and  _512
REMARK  208  A    between atoms: _515  and  _517
REMARK  209  A    between atoms: _517  and  _518
REMARK  210  A    between atoms: _521  and  _523
REMARK  211  A    between atoms: _523  and  _524
REMARK  212  A    between atoms: _523  and  _526
REMARK  213  A    between atoms: _526  and  _527
REMARK  214  A    between atoms: _530  and  _532
REMARK  215  A    between atoms: _532  and  _533
REMARK  216  A    between atoms: _532  and  _535
REMARK  217  A    between atoms: _535  and  _536
REMARK  218  A    between atoms: _536  and  _537
REMARK  219  A    between atoms: _542  and  _544
REMARK  220  A    between atoms: _544  and  _545
REMARK  221  A    between atoms: _544  and  _547
REMARK  222  A    between atoms: _547  and  _548
REMARK  223  A    between atoms: _548  and  _549
REMARK  224  A    between atoms: _552  and  _554
REMARK  225  A    between atoms: _554  and  _555
REMARK  226  A    between atoms: _558  and  _560
REMARK  227  A    between atoms: _560  and  _561
REMARK  228  A    between atoms: _560  and  _563
REMARK  229  A    between atoms: _563  and  _564
REMARK  230  A    between atoms: _567  and  _569
REMARK  231  A    between atoms: _569  and  _570
REMARK  232  A    between atoms: _569  and  _572
REMARK  233  A    between atoms: _572  and  _573
REMARK  234  A    between atoms: _578  and  _580
REMARK  235  A    between atoms: _580  and  _581
REMARK  236  A    between atoms: _580  and  _583
REMARK  237  A    between atoms: _583  and  _584
REMARK  238  A    between atoms: _586  and  _588
REMARK  239  A    between atoms: _588  and  _589
REMARK  240  A    between atoms: _592  and  _594
REMARK  241  A    between atoms: _594  and  _595
REMARK  242  A    between atoms: _598  and  _600
REMARK  243  A    between atoms: _600  and  _601
REMARK  244  A    between atoms: _603  and  _605
REMARK  245  A    between atoms: _605  and  _606
REMARK  246  A    between atoms: _605  and  _608
REMARK  247  A    between atoms: _608  and  _609
REMARK  248  A    between atoms: _612  and  _614
REMARK  249  A    between atoms: _614  and  _615
REMARK  250  A    between atoms: _617  and  _619
REMARK  251  A    between atoms: _619  and  _620
REMARK  252  A    between atoms: _619  and  _622
REMARK  253  A    between atoms: _622  and  _623
REMARK  254  A    between atoms: _628  and  _630
REMARK  255  A    between atoms: _630  and  _631
REMARK  256  A    between atoms: _634  and  _636
REMARK  257  A    between atoms: _636  and  _637
REMARK  258  A    between atoms: _636  and  _639
REMARK  259  A    between atoms: _639  and  _640
REMARK  260  A    between atoms: _640  and  _641
REMARK  261  A    between atoms: _646  and  _648
REMARK  262  A    between atoms: _648  and  _649
REMARK  263  A    between atoms: _648  and  _651
REMARK  264  A    between atoms: _651  and  _652
REMARK  265  A    between atoms: _655  and  _657
REMARK  266  A    between atoms: _657  and  _658
REMARK  267  A    between atoms: _657  and  _660
REMARK  268  A    between atoms: _660  and  _661
REMARK                            x       y       z     vdW  Elec       q    Type
REMARK                         _______ _______ _______ _____ _____    ______ ____
ROOT
ATOM      1  O   HOH     1     103.462  37.744  90.363  0.00  0.00    +0.000 OA
ENDROOT
TORSDOF 0
REMARK  Name = ../refined-set-2016/3fzn/3fzn_pocket.pdb
REMARK  268 active torsions:
REMARK  status: ('A' for Active; 'I' for Inactive)
REMARK    1  A    between atoms: _1  and  _3
REMARK    2  A    between atoms: _3  and  _4
REMARK    3  A    between atoms: _6  and  _8
REMARK    4  A    between atoms: _8  and  _9
REMARK    5  A    between atoms: _8  and  _11
REMARK    6  A    between atoms: _11  and  _12
REMARK    7  A    between atoms: _17  and  _19
REMARK    8  A    between atoms: _19  and  _20
REMARK    9  A    between atoms: _19  and  _22
REMARK   10  A    between atoms: _22  and  _23
REMARK   11  A    between atoms: _25  and  _27
REMARK   12  A    between atoms: _27  and  _28
REMARK   13  A    between atoms: _27  and  _30
REMARK   14  A    between atoms: _30  and  _31
REMARK   15  A    between atoms: _36  and  _38
REMARK   16  A    between atoms: _38  and  _39
REMARK   17  A    between atoms: _38  and  _41
REMARK   18  A    between atoms: _41  and  _42
REMARK   19  A    between atoms: _42  and  _43
REMARK   20  A    between atoms: _49  and  _50
REMARK   21  A    between atoms: _55  and  _57
REMARK   22  A    between atoms: _57  and  _58
REMARK   23  A    between atoms: _57  and  _60
REMARK   24  A    between atoms: _60  and  _61
REMARK   25  A    between atoms: _66  and  _68
REMARK   26  A    between atoms: _68  and  _69
REMARK   27  A    between atoms: _68  and  _71
REMARK   28  A    between atoms: _71  and  _72
REMARK   29  A    between atoms: _72  and  _73
REMARK   30  A    between atoms: _76  and  _78
REMARK   31  A    between atoms: _78  and  _79
REMARK   32  A    between atoms: _78  and  _81
REMARK   33  A    between atoms: _81  and  _82
REMARK   34  A    between atoms: _84  and  _86
REMARK   35  A    between atoms: _86  and  _87
REMARK   36  A    between atoms: _86  and  _89
REMARK   37  A    between atoms: _89  and  _90
REMARK   38  A    between atoms: _93  and  _95
REMARK   39  A    between atoms: _95  and  _96
REMARK   40  A    between atoms: _95  and  _98
REMARK   41  A    between atoms: _98  and  _99
REMARK   42  A    between atoms: _101  and  _103
REMARK   43  A    between atoms: _103  and  _104
REMARK   44  A    between atoms: _103  and  _106
REMARK   45  A    between atoms: _106  and  _107
REMARK   46  A    between atoms: _110  and  _112
REMARK   47  A    between atoms: _112  and  _113
REMARK   48  A    between atoms: _112  and  _115
REMARK   49  A    between atoms: _115  and  _116
REMARK   50  A    between atoms: _119  and  _121
REMARK   51  A    between atoms: _121  and  _122
REMARK   52  A    between atoms: _121  and  _124
REMARK   53  A    between atoms: _124  and  _125
REMARK   54  A    between atoms: _131  and  _133
REMARK   55  A    between atoms: _133  and  _134
REMARK   56  A    between atoms: _133  and  _136
REMARK   57  A    between atoms: _138  and  _140
REMARK   58  A    between atoms: _140  and  _141
REMARK   59  A    between atoms: _144  and  _146
REMARK   60  A    between atoms: _146  and  _147
REMARK   61  A    between atoms: _149  and  _151
REMARK   62  A    between atoms: _151  and  _152
REMARK   63  A    between atoms: _154  and  _156
REMARK   64  A    between atoms: _156  and  _157
REMARK   65  A    between atoms: _156  and  _159
REMARK   66  A    between atoms: _159  and  _160
REMARK   67  A    between atoms: _163  and  _165
REMARK   68  A    between atoms: _165  and  _166
REMARK   69  A    between atoms: _168  and  _170
REMARK   70  A    between atoms: _170  and  _171
REMARK   71  A    between atoms: _170  and  _173
REMARK   72  A    between atoms: _173  and  _174
REMARK   73  A    between atoms: _180  and  _182
REMARK   74  A    between atoms: _182  and  _183
REMARK   75  A    between atoms: _182  and  _185
REMARK   76  A    between atoms: _188  and  _190
REMARK   77  A    between atoms: _190  and  _191
REMARK   78  A    between atoms: _190  and  _193
REMARK   79  A    between atoms: _193  and  _194
REMARK   80  A    between atoms: _197  and  _199
REMARK   81  A    between atoms: _199  and  _200
REMARK   82  A    between atoms: _202  and  _204
REMARK   83  A    between atoms: _204  and  _205
REMARK   84  A    between atoms: _204  and  _207
REMARK   85  A    between atoms: _207  and  _208
REMARK   86  A    between atoms: _208  and  _209
REMARK   87  A    between atoms: _209  and  MG_664
REMARK   88  A    between atoms: _211  and  _213
REMARK   89  A    between atoms: _213  and  _214
REMARK   90  A    between atoms: _216  and  _218
REMARK   91  A    between atoms: _218  and  _219
REMARK   92  A    between atoms: _218  and  _221
REMARK   93  A    between atoms: _221  and  _222
REMARK   94  A    between atoms: _224  and  _226
REMARK   95  A    between atoms: _226  and  _227
REMARK   96  A    between atoms: _230  and  _232
REMARK   97  A    between atoms: _232  and  _233
REMARK   98  A    between atoms: _232  and  _235
REMARK   99  A    between atoms: _235  and  _236
REMARK  100  A    between atoms: _241  and  _243
REMARK  101  A    between atoms: _243  and  _244
REMARK  102  A    between atoms: _243  and  _246
REMARK  103  A    between atoms: _246  and  _247
REMARK  104  A    between atoms: _252  and  _253
REMARK  105  A    between atoms: _255  and  _257
REMARK  106  A    between atoms: _257  and  _258
REMARK  107  A    between atoms: _257  and  _260
REMARK  108  A    between atoms: _260  and  _261
REMARK  109  A    between atoms: _264  and  _266
REMARK  110  A    between atoms: _266  and  _267
REMARK  111  A    between atoms: _266  and  _269
REMARK  112  A    between atoms: _269  and  _270
REMARK  113  A    between atoms: _270  and  _271
REMARK  114  A    between atoms: _273  and  _275
REMARK  115  A    between atoms: _275  and  _276
REMARK  116  A    between atoms: _275  and  _278
REMARK  117  A    between atoms: _278  and  _279
REMARK  118  A    between atoms: _284  and  _286
REMARK  119  A    between atoms: _286  and  _287
REMARK  120  A    between atoms: _286  and  _289
REMARK  121  A    between atoms: _289  and  _290
REMARK  122  A    between atoms: _290  and  _291
REMARK  123  A    between atoms: _290  and  _292
REMARK  124  A    between atoms: _291  and  MG_664
REMARK  125  A    between atoms: _295  and  _297
REMARK  126  A    between atoms: _297  and  _298
REMARK  127  A    between atoms: _300  and  _302
REMARK  128  A    between atoms: _302  and  _303
REMARK  129  A    between atoms: _302  and  _305
REMARK  130  A    between atoms: _305  and  _306
REMARK  131  A    between atoms: _309  and  _311
REMARK  132  A    between atoms: _311  and  _312
REMARK  133  A    between atoms: _311  and  _314
REMARK  134  A    between atoms: _314  and  _315
REMARK  135  A    between atoms: _320  and  _321
REMARK  136  A    between atoms: _323  and  _325
REMARK  137  A    between atoms: _325  and  _326
REMARK  138  A    between atoms: _328  and  _330
REMARK  139  A    between atoms: _330  and  _331
REMARK  140  A    between atoms: _334  and  _336
REMARK  141  A    between atoms: _336  and  _337
REMARK  142  A    between atoms: _336  and  _339
REMARK  143  A    between atoms: _339  and  _340
REMARK  144  A    between atoms: _343  and  _345
REMARK  145  A    between atoms: _345  and  _346
REMARK  146  A    between atoms: _345  and  _348
REMARK  147  A    between atoms: _348  and  _349
REMARK  148  A    between atoms: _349  and  _350
REMARK  149  A    between atoms: _350  and  _351
REMARK  150  A    between atoms: _360  and  _362
REMARK  151  A    between atoms: _362  and  _363
REMARK  152  A    between atoms: _362  and  _365
REMARK  153  A    between atoms: _365  and  _366
REMARK  154  A    between atoms: _376  and  _378
REMARK  155  A    between atoms: _378  and  _379
REMARK  156  A    between atoms: _378  and  _381
REMARK  157  A    between atoms: _381  and  _382
REMARK  158  A    between atoms: _388  and  _390
REMARK  159  A    between atoms: _390  and  _391
REMARK  160  A    between atoms: _394  and  _396
REMARK  161  A    between atoms: _396  and  _397
REMARK  162  A    between atoms: _399  and  _401
REMARK  163  A    between atoms: _401  and  _402
REMARK  164  A    between atoms: _401  and  _404
REMARK  165  A    between atoms: _404  and  _405
REMARK  166  A    between atoms: _408  and  _410
REMARK  167  A    between atoms: _410  and  _411
REMARK  168  A    between atoms: _410  and  _413
REMARK  169  A    between atoms: _416  and  _418
REMARK  170  A    between atoms: _418  and  _419
REMARK  171  A    between atoms: _418  and  _421
REMARK  172  A    between atoms: _421  and  _422
REMARK  173  A    between atoms: _428  and  _430
REMARK  174  A    between atoms: _430  and  _431
REMARK  175  A    between atoms: _430  and  _433
REMARK  176  A    between atoms: _433  and  _434
REMARK  177  A    between atoms: _437  and  _439
REMARK  178  A    between atoms: _439  and  _440
REMARK  179  A    between atoms: _439  and  _442
REMARK  180  A    between atoms: _445  and  _447
REMARK  181  A    between atoms: _447  and  _448
REMARK  182  A    between atoms: _447  and  _450
REMARK  183  A    between atoms: _450  and  _451
REMARK  184  A    between atoms: _457  and  _458
REMARK  185  A    between atoms: _463  and  _465
REMARK  186  A    between atoms: _465  and  _466
REMARK  187  A    between atoms: _468  and  _470
REMARK  188  A    between atoms: _470  and  _471
REMARK  189  A    between atoms: _470  and  _473
REMARK  190  A    between atoms: _473  and  _474
REMARK  191  A    between atoms: _476  and  _478
REMARK  192  A    between atoms: _478  and  _479
REMARK  193  A    between atoms: _478  and  _481
REMARK  194  A    between atoms: _481  and  _482
REMARK  195  A    between atoms: _487  and  _489
REMARK  196  A    between atoms: _489  and  _490
REMARK  197  A    between atoms: _489  and  _492
REMARK  198  A    between atoms: _492  and  _493
REMARK  199  A    between atoms: _493  and  _494
REMARK  200  A    between atoms: _497  and  _499
REMARK  201  A    between atoms: _499  and  _500
REMARK  202  A    between atoms: _499  and  _502
REMARK  203  A    between atoms: _502  and  _503
REMARK  204  A    between atoms: _506  and  _508
REMARK  205  A    between atoms: _508  and  _509
REMARK  206  A    between atoms: _508  and  _511
REMARK  207  A    between atoms: _511  and  _512
REMARK  208  A    between atoms: _515  and  _517
REMARK  209  A    between atoms: _517  and  _518
REMARK  210  A    between atoms: _521  and  _523
REMARK  211  A    between atoms: _523  and  _524
REMARK  212  A    between atoms: _523  and  _526
REMARK  213  A    between atoms: _526  and  _527
REMARK  214  A    between atoms: _530  and  _532
REMARK  215  A    between atoms: _532  and  _533
REMARK  216  A    between atoms: _532  and  _535
REMARK  217  A    between atoms: _535  and  _536
REMARK  218  A    between atoms: _536  and  _537
REMARK  219  A    between atoms: _542  and  _544
REMARK  220  A    between atoms: _544  and  _545
REMARK  221  A    between atoms: _544  and  _547
REMARK  222  A    between atoms: _547  and  _548
REMARK  223  A    between atoms: _548  and  _549
REMARK  224  A    between atoms: _552  and  _554
REMARK  225  A    between atoms: _554  and  _555
REMARK  226  A    between atoms: _558  and  _560
REMARK  227  A    between atoms: _560  and  _561
REMARK  228  A    between atoms: _560  and  _563
REMARK  229  A    between atoms: _563  and  _564
REMARK  230  A    between atoms: _567  and  _569
REMARK  231  A    between atoms: _569  and  _570
REMARK  232  A    between atoms: _569  and  _572
REMARK  233  A    between atoms: _572  and  _573
REMARK  234  A    between atoms: _578  and  _580
REMARK  235  A    between atoms: _580  and  _581
REMARK  236  A    between atoms: _580  and  _583
REMARK  237  A    between atoms: _583  and  _584
REMARK  238  A    between atoms: _586  and  _588
REMARK  239  A    between atoms: _588  and  _589
REMARK  240  A    between atoms: _592  and  _594
REMARK  241  A    between atoms: _594  and  _595
REMARK  242  A    between atoms: _598  and  _600
REMARK  243  A    between atoms: _600  and  _601
REMARK  244  A    between atoms: _603  and  _605
REMARK  245  A    between atoms: _605  and  _606
REMARK  246  A    between atoms: _605  and  _608
REMARK  247  A    between atoms: _608  and  _609
REMARK  248  A    between atoms: _612  and  _614
REMARK  249  A    between atoms: _614  and  _615
REMARK  250  A    between atoms: _617  and  _619
REMARK  251  A    between atoms: _619  and  _620
REMARK  252  A    between atoms: _619  and  _622
REMARK  253  A    between atoms: _622  and  _623
REMARK  254  A    between atoms: _628  and  _630
REMARK  255  A    between atoms: _630  and  _631
REMARK  256  A    between atoms: _634  and  _636
REMARK  257  A    between atoms: _636  and  _637
REMARK  258  A    between atoms: _636  and  _639
REMARK  259  A    between atoms: _639  and  _640
REMARK  260  A    between atoms: _640  and  _641
REMARK  261  A    between atoms: _646  and  _648
REMARK  262  A    between atoms: _648  and  _649
REMARK  263  A    between atoms: _648  and  _651
REMARK  264  A    between atoms: _651  and  _652
REMARK  265  A    between atoms: _655  and  _657
REMARK  266  A    between atoms: _657  and  _658
REMARK  267  A    between atoms: _657  and  _660
REMARK  268  A    between atoms: _660  and  _661
REMARK                            x       y       z     vdW  Elec       q    Type
REMARK                         _______ _______ _______ _____ _____    ______ ____
ROOT
ATOM      1  O   HOH     1     110.959  33.982  93.855  0.00  0.00    +0.000 OA
ENDROOT
TORSDOF 0
REMARK  Name = ../refined-set-2016/3fzn/3fzn_pocket.pdb
REMARK  268 active torsions:
REMARK  status: ('A' for Active; 'I' for Inactive)
REMARK    1  A    between atoms: _1  and  _3
REMARK    2  A    between atoms: _3  and  _4
REMARK    3  A    between atoms: _6  and  _8
REMARK    4  A    between atoms: _8  and  _9
REMARK    5  A    between atoms: _8  and  _11
REMARK    6  A    between atoms: _11  and  _12
REMARK    7  A    between atoms: _17  and  _19
REMARK    8  A    between atoms: _19  and  _20
REMARK    9  A    between atoms: _19  and  _22
REMARK   10  A    between atoms: _22  and  _23
REMARK   11  A    between atoms: _25  and  _27
REMARK   12  A    between atoms: _27  and  _28
REMARK   13  A    between atoms: _27  and  _30
REMARK   14  A    between atoms: _30  and  _31
REMARK   15  A    between atoms: _36  and  _38
REMARK   16  A    between atoms: _38  and  _39
REMARK   17  A    between atoms: _38  and  _41
REMARK   18  A    between atoms: _41  and  _42
REMARK   19  A    between atoms: _42  and  _43
REMARK   20  A    between atoms: _49  and  _50
REMARK   21  A    between atoms: _55  and  _57
REMARK   22  A    between atoms: _57  and  _58
REMARK   23  A    between atoms: _57  and  _60
REMARK   24  A    between atoms: _60  and  _61
REMARK   25  A    between atoms: _66  and  _68
REMARK   26  A    between atoms: _68  and  _69
REMARK   27  A    between atoms: _68  and  _71
REMARK   28  A    between atoms: _71  and  _72
REMARK   29  A    between atoms: _72  and  _73
REMARK   30  A    between atoms: _76  and  _78
REMARK   31  A    between atoms: _78  and  _79
REMARK   32  A    between atoms: _78  and  _81
REMARK   33  A    between atoms: _81  and  _82
REMARK   34  A    between atoms: _84  and  _86
REMARK   35  A    between atoms: _86  and  _87
REMARK   36  A    between atoms: _86  and  _89
REMARK   37  A    between atoms: _89  and  _90
REMARK   38  A    between atoms: _93  and  _95
REMARK   39  A    between atoms: _95  and  _96
REMARK   40  A    between atoms: _95  and  _98
REMARK   41  A    between atoms: _98  and  _99
REMARK   42  A    between atoms: _101  and  _103
REMARK   43  A    between atoms: _103  and  _104
REMARK   44  A    between atoms: _103  and  _106
REMARK   45  A    between atoms: _106  and  _107
REMARK   46  A    between atoms: _110  and  _112
REMARK   47  A    between atoms: _112  and  _113
REMARK   48  A    between atoms: _112  and  _115
REMARK   49  A    between atoms: _115  and  _116
REMARK   50  A    between atoms: _119  and  _121
REMARK   51  A    between atoms: _121  and  _122
REMARK   52  A    between atoms: _121  and  _124
REMARK   53  A    between atoms: _124  and  _125
REMARK   54  A    between atoms: _131  and  _133
REMARK   55  A    between atoms: _133  and  _134
REMARK   56  A    between atoms: _133  and  _136
REMARK   57  A    between atoms: _138  and  _140
REMARK   58  A    between atoms: _140  and  _141
REMARK   59  A    between atoms: _144  and  _146
REMARK   60  A    between atoms: _146  and  _147
REMARK   61  A    between atoms: _149  and  _151
REMARK   62  A    between atoms: _151  and  _152
REMARK   63  A    between atoms: _154  and  _156
REMARK   64  A    between atoms: _156  and  _157
REMARK   65  A    between atoms: _156  and  _159
REMARK   66  A    between atoms: _159  and  _160
REMARK   67  A    between atoms: _163  and  _165
REMARK   68  A    between atoms: _165  and  _166
REMARK   69  A    between atoms: _168  and  _170
REMARK   70  A    between atoms: _170  and  _171
REMARK   71  A    between atoms: _170  and  _173
REMARK   72  A    between atoms: _173  and  _174
REMARK   73  A    between atoms: _180  and  _182
REMARK   74  A    between atoms: _182  and  _183
REMARK   75  A    between atoms: _182  and  _185
REMARK   76  A    between atoms: _188  and  _190
REMARK   77  A    between atoms: _190  and  _191
REMARK   78  A    between atoms: _190  and  _193
REMARK   79  A    between atoms: _193  and  _194
REMARK   80  A    between atoms: _197  and  _199
REMARK   81  A    between atoms: _199  and  _200
REMARK   82  A    between atoms: _202  and  _204
REMARK   83  A    between atoms: _204  and  _205
REMARK   84  A    between atoms: _204  and  _207
REMARK   85  A    between atoms: _207  and  _208
REMARK   86  A    between atoms: _208  and  _209
REMARK   87  A    between atoms: _209  and  MG_664
REMARK   88  A    between atoms: _211  and  _213
REMARK   89  A    between atoms: _213  and  _214
REMARK   90  A    between atoms: _216  and  _218
REMARK   91  A    between atoms: _218  and  _219
REMARK   92  A    between atoms: _218  and  _221
REMARK   93  A    between atoms: _221  and  _222
REMARK   94  A    between atoms: _224  and  _226
REMARK   95  A    between atoms: _226  and  _227
REMARK   96  A    between atoms: _230  and  _232
REMARK   97  A    between atoms: _232  and  _233
REMARK   98  A    between atoms: _232  and  _235
REMARK   99  A    between atoms: _235  and  _236
REMARK  100  A    between atoms: _241  and  _243
REMARK  101  A    between atoms: _243  and  _244
REMARK  102  A    between atoms: _243  and  _246
REMARK  103  A    between atoms: _246  and  _247
REMARK  104  A    between atoms: _252  and  _253
REMARK  105  A    between atoms: _255  and  _257
REMARK  106  A    between atoms: _257  and  _258
REMARK  107  A    between atoms: _257  and  _260
REMARK  108  A    between atoms: _260  and  _261
REMARK  109  A    between atoms: _264  and  _266
REMARK  110  A    between atoms: _266  and  _267
REMARK  111  A    between atoms: _266  and  _269
REMARK  112  A    between atoms: _269  and  _270
REMARK  113  A    between atoms: _270  and  _271
REMARK  114  A    between atoms: _273  and  _275
REMARK  115  A    between atoms: _275  and  _276
REMARK  116  A    between atoms: _275  and  _278
REMARK  117  A    between atoms: _278  and  _279
REMARK  118  A    between atoms: _284  and  _286
REMARK  119  A    between atoms: _286  and  _287
REMARK  120  A    between atoms: _286  and  _289
REMARK  121  A    between atoms: _289  and  _290
REMARK  122  A    between atoms: _290  and  _291
REMARK  123  A    between atoms: _290  and  _292
REMARK  124  A    between atoms: _291  and  MG_664
REMARK  125  A    between atoms: _295  and  _297
REMARK  126  A    between atoms: _297  and  _298
REMARK  127  A    between atoms: _300  and  _302
REMARK  128  A    between atoms: _302  and  _303
REMARK  129  A    between atoms: _302  and  _305
REMARK  130  A    between atoms: _305  and  _306
REMARK  131  A    between atoms: _309  and  _311
REMARK  132  A    between atoms: _311  and  _312
REMARK  133  A    between atoms: _311  and  _314
REMARK  134  A    between atoms: _314  and  _315
REMARK  135  A    between atoms: _320  and  _321
REMARK  136  A    between atoms: _323  and  _325
REMARK  137  A    between atoms: _325  and  _326
REMARK  138  A    between atoms: _328  and  _330
REMARK  139  A    between atoms: _330  and  _331
REMARK  140  A    between atoms: _334  and  _336
REMARK  141  A    between atoms: _336  and  _337
REMARK  142  A    between atoms: _336  and  _339
REMARK  143  A    between atoms: _339  and  _340
REMARK  144  A    between atoms: _343  and  _345
REMARK  145  A    between atoms: _345  and  _346
REMARK  146  A    between atoms: _345  and  _348
REMARK  147  A    between atoms: _348  and  _349
REMARK  148  A    between atoms: _349  and  _350
REMARK  149  A    between atoms: _350  and  _351
REMARK  150  A    between atoms: _360  and  _362
REMARK  151  A    between atoms: _362  and  _363
REMARK  152  A    between atoms: _362  and  _365
REMARK  153  A    between atoms: _365  and  _366
REMARK  154  A    between atoms: _376  and  _378
REMARK  155  A    between atoms: _378  and  _379
REMARK  156  A    between atoms: _378  and  _381
REMARK  157  A    between atoms: _381  and  _382
REMARK  158  A    between atoms: _388  and  _390
REMARK  159  A    between atoms: _390  and  _391
REMARK  160  A    between atoms: _394  and  _396
REMARK  161  A    between atoms: _396  and  _397
REMARK  162  A    between atoms: _399  and  _401
REMARK  163  A    between atoms: _401  and  _402
REMARK  164  A    between atoms: _401  and  _404
REMARK  165  A    between atoms: _404  and  _405
REMARK  166  A    between atoms: _408  and  _410
REMARK  167  A    between atoms: _410  and  _411
REMARK  168  A    between atoms: _410  and  _413
REMARK  169  A    between atoms: _416  and  _418
REMARK  170  A    between atoms: _418  and  _419
REMARK  171  A    between atoms: _418  and  _421
REMARK  172  A    between atoms: _421  and  _422
REMARK  173  A    between atoms: _428  and  _430
REMARK  174  A    between atoms: _430  and  _431
REMARK  175  A    between atoms: _430  and  _433
REMARK  176  A    between atoms: _433  and  _434
REMARK  177  A    between atoms: _437  and  _439
REMARK  178  A    between atoms: _439  and  _440
REMARK  179  A    between atoms: _439  and  _442
REMARK  180  A    between atoms: _445  and  _447
REMARK  181  A    between atoms: _447  and  _448
REMARK  182  A    between atoms: _447  and  _450
REMARK  183  A    between atoms: _450  and  _451
REMARK  184  A    between atoms: _457  and  _458
REMARK  185  A    between atoms: _463  and  _465
REMARK  186  A    between atoms: _465  and  _466
REMARK  187  A    between atoms: _468  and  _470
REMARK  188  A    between atoms: _470  and  _471
REMARK  189  A    between atoms: _470  and  _473
REMARK  190  A    between atoms: _473  and  _474
REMARK  191  A    between atoms: _476  and  _478
REMARK  192  A    between atoms: _478  and  _479
REMARK  193  A    between atoms: _478  and  _481
REMARK  194  A    between atoms: _481  and  _482
REMARK  195  A    between atoms: _487  and  _489
REMARK  196  A    between atoms: _489  and  _490
REMARK  197  A    between atoms: _489  and  _492
REMARK  198  A    between atoms: _492  and  _493
REMARK  199  A    between atoms: _493  and  _494
REMARK  200  A    between atoms: _497  and  _499
REMARK  201  A    between atoms: _499  and  _500
REMARK  202  A    between atoms: _499  and  _502
REMARK  203  A    between atoms: _502  and  _503
REMARK  204  A    between atoms: _506  and  _508
REMARK  205  A    between atoms: _508  and  _509
REMARK  206  A    between atoms: _508  and  _511
REMARK  207  A    between atoms: _511  and  _512
REMARK  208  A    between atoms: _515  and  _517
REMARK  209  A    between atoms: _517  and  _518
REMARK  210  A    between atoms: _521  and  _523
REMARK  211  A    between atoms: _523  and  _524
REMARK  212  A    between atoms: _523  and  _526
REMARK  213  A    between atoms: _526  and  _527
REMARK  214  A    between atoms: _530  and  _532
REMARK  215  A    between atoms: _532  and  _533
REMARK  216  A    between atoms: _532  and  _535
REMARK  217  A    between atoms: _535  and  _536
REMARK  218  A    between atoms: _536  and  _537
REMARK  219  A    between atoms: _542  and  _544
REMARK  220  A    between atoms: _544  and  _545
REMARK  221  A    between atoms: _544  and  _547
REMARK  222  A    between atoms: _547  and  _548
REMARK  223  A    between atoms: _548  and  _549
REMARK  224  A    between atoms: _552  and  _554
REMARK  225  A    between atoms: _554  and  _555
REMARK  226  A    between atoms: _558  and  _560
REMARK  227  A    between atoms: _560  and  _561
REMARK  228  A    between atoms: _560  and  _563
REMARK  229  A    between atoms: _563  and  _564
REMARK  230  A    between atoms: _567  and  _569
REMARK  231  A    between atoms: _569  and  _570
REMARK  232  A    between atoms: _569  and  _572
REMARK  233  A    between atoms: _572  and  _573
REMARK  234  A    between atoms: _578  and  _580
REMARK  235  A    between atoms: _580  and  _581
REMARK  236  A    between atoms: _580  and  _583
REMARK  237  A    between atoms: _583  and  _584
REMARK  238  A    between atoms: _586  and  _588
REMARK  239  A    between atoms: _588  and  _589
REMARK  240  A    between atoms: _592  and  _594
REMARK  241  A    between atoms: _594  and  _595
REMARK  242  A    between atoms: _598  and  _600
REMARK  243  A    between atoms: _600  and  _601
REMARK  244  A    between atoms: _603  and  _605
REMARK  245  A    between atoms: _605  and  _606
REMARK  246  A    between atoms: _605  and  _608
REMARK  247  A    between atoms: _608  and  _609
REMARK  248  A    between atoms: _612  and  _614
REMARK  249  A    between atoms: _614  and  _615
REMARK  250  A    between atoms: _617  and  _619
REMARK  251  A    between atoms: _619  and  _620
REMARK  252  A    between atoms: _619  and  _622
REMARK  253  A    between atoms: _622  and  _623
REMARK  254  A    between atoms: _628  and  _630
REMARK  255  A    between atoms: _630  and  _631
REMARK  256  A    between atoms: _634  and  _636
REMARK  257  A    between atoms: _636  and  _637
REMARK  258  A    between atoms: _636  and  _639
REMARK  259  A    between atoms: _639  and  _640
REMARK  260  A    between atoms: _640  and  _641
REMARK  261  A    between atoms: _646  and  _648
REMARK  262  A    between atoms: _648  and  _649
REMARK  263  A    between atoms: _648  and  _651
REMARK  264  A    between atoms: _651  and  _652
REMARK  265  A    between atoms: _655  and  _657
REMARK  266  A    between atoms: _657  and  _658
REMARK  267  A    between atoms: _657  and  _660
REMARK  268  A    between atoms: _660  and  _661
REMARK                            x       y       z     vdW  Elec       q    Type
REMARK                         _______ _______ _______ _____ _____    ______ ____
ROOT
ATOM      1  O   HOH     1     112.962  42.053  86.342  0.00  0.00    +0.000 OA
ENDROOT
TORSDOF 0
REMARK  Name = ../refined-set-2016/3fzn/3fzn_pocket.pdb
REMARK  268 active torsions:
REMARK  status: ('A' for Active; 'I' for Inactive)
REMARK    1  A    between atoms: _1  and  _3
REMARK    2  A    between atoms: _3  and  _4
REMARK    3  A    between atoms: _6  and  _8
REMARK    4  A    between atoms: _8  and  _9
REMARK    5  A    between atoms: _8  and  _11
REMARK    6  A    between atoms: _11  and  _12
REMARK    7  A    between atoms: _17  and  _19
REMARK    8  A    between atoms: _19  and  _20
REMARK    9  A    between atoms: _19  and  _22
REMARK   10  A    between atoms: _22  and  _23
REMARK   11  A    between atoms: _25  and  _27
REMARK   12  A    between atoms: _27  and  _28
REMARK   13  A    between atoms: _27  and  _30
REMARK   14  A    between atoms: _30  and  _31
REMARK   15  A    between atoms: _36  and  _38
REMARK   16  A    between atoms: _38  and  _39
REMARK   17  A    between atoms: _38  and  _41
REMARK   18  A    between atoms: _41  and  _42
REMARK   19  A    between atoms: _42  and  _43
REMARK   20  A    between atoms: _49  and  _50
REMARK   21  A    between atoms: _55  and  _57
REMARK   22  A    between atoms: _57  and  _58
REMARK   23  A    between atoms: _57  and  _60
REMARK   24  A    between atoms: _60  and  _61
REMARK   25  A    between atoms: _66  and  _68
REMARK   26  A    between atoms: _68  and  _69
REMARK   27  A    between atoms: _68  and  _71
REMARK   28  A    between atoms: _71  and  _72
REMARK   29  A    between atoms: _72  and  _73
REMARK   30  A    between atoms: _76  and  _78
REMARK   31  A    between atoms: _78  and  _79
REMARK   32  A    between atoms: _78  and  _81
REMARK   33  A    between atoms: _81  and  _82
REMARK   34  A    between atoms: _84  and  _86
REMARK   35  A    between atoms: _86  and  _87
REMARK   36  A    between atoms: _86  and  _89
REMARK   37  A    between atoms: _89  and  _90
REMARK   38  A    between atoms: _93  and  _95
REMARK   39  A    between atoms: _95  and  _96
REMARK   40  A    between atoms: _95  and  _98
REMARK   41  A    between atoms: _98  and  _99
REMARK   42  A    between atoms: _101  and  _103
REMARK   43  A    between atoms: _103  and  _104
REMARK   44  A    between atoms: _103  and  _106
REMARK   45  A    between atoms: _106  and  _107
REMARK   46  A    between atoms: _110  and  _112
REMARK   47  A    between atoms: _112  and  _113
REMARK   48  A    between atoms: _112  and  _115
REMARK   49  A    between atoms: _115  and  _116
REMARK   50  A    between atoms: _119  and  _121
REMARK   51  A    between atoms: _121  and  _122
REMARK   52  A    between atoms: _121  and  _124
REMARK   53  A    between atoms: _124  and  _125
REMARK   54  A    between atoms: _131  and  _133
REMARK   55  A    between atoms: _133  and  _134
REMARK   56  A    between atoms: _133  and  _136
REMARK   57  A    between atoms: _138  and  _140
REMARK   58  A    between atoms: _140  and  _141
REMARK   59  A    between atoms: _144  and  _146
REMARK   60  A    between atoms: _146  and  _147
REMARK   61  A    between atoms: _149  and  _151
REMARK   62  A    between atoms: _151  and  _152
REMARK   63  A    between atoms: _154  and  _156
REMARK   64  A    between atoms: _156  and  _157
REMARK   65  A    between atoms: _156  and  _159
REMARK   66  A    between atoms: _159  and  _160
REMARK   67  A    between atoms: _163  and  _165
REMARK   68  A    between atoms: _165  and  _166
REMARK   69  A    between atoms: _168  and  _170
REMARK   70  A    between atoms: _170  and  _171
REMARK   71  A    between atoms: _170  and  _173
REMARK   72  A    between atoms: _173  and  _174
REMARK   73  A    between atoms: _180  and  _182
REMARK   74  A    between atoms: _182  and  _183
REMARK   75  A    between atoms: _182  and  _185
REMARK   76  A    between atoms: _188  and  _190
REMARK   77  A    between atoms: _190  and  _191
REMARK   78  A    between atoms: _190  and  _193
REMARK   79  A    between atoms: _193  and  _194
REMARK   80  A    between atoms: _197  and  _199
REMARK   81  A    between atoms: _199  and  _200
REMARK   82  A    between atoms: _202  and  _204
REMARK   83  A    between atoms: _204  and  _205
REMARK   84  A    between atoms: _204  and  _207
REMARK   85  A    between atoms: _207  and  _208
REMARK   86  A    between atoms: _208  and  _209
REMARK   87  A    between atoms: _209  and  MG_664
REMARK   88  A    between atoms: _211  and  _213
REMARK   89  A    between atoms: _213  and  _214
REMARK   90  A    between atoms: _216  and  _218
REMARK   91  A    between atoms: _218  and  _219
REMARK   92  A    between atoms: _218  and  _221
REMARK   93  A    between atoms: _221  and  _222
REMARK   94  A    between atoms: _224  and  _226
REMARK   95  A    between atoms: _226  and  _227
REMARK   96  A    between atoms: _230  and  _232
REMARK   97  A    between atoms: _232  and  _233
REMARK   98  A    between atoms: _232  and  _235
REMARK   99  A    between atoms: _235  and  _236
REMARK  100  A    between atoms: _241  and  _243
REMARK  101  A    between atoms: _243  and  _244
REMARK  102  A    between atoms: _243  and  _246
REMARK  103  A    between atoms: _246  and  _247
REMARK  104  A    between atoms: _252  and  _253
REMARK  105  A    between atoms: _255  and  _257
REMARK  106  A    between atoms: _257  and  _258
REMARK  107  A    between atoms: _257  and  _260
REMARK  108  A    between atoms: _260  and  _261
REMARK  109  A    between atoms: _264  and  _266
REMARK  110  A    between atoms: _266  and  _267
REMARK  111  A    between atoms: _266  and  _269
REMARK  112  A    between atoms: _269  and  _270
REMARK  113  A    between atoms: _270  and  _271
REMARK  114  A    between atoms: _273  and  _275
REMARK  115  A    between atoms: _275  and  _276
REMARK  116  A    between atoms: _275  and  _278
REMARK  117  A    between atoms: _278  and  _279
REMARK  118  A    between atoms: _284  and  _286
REMARK  119  A    between atoms: _286  and  _287
REMARK  120  A    between atoms: _286  and  _289
REMARK  121  A    between atoms: _289  and  _290
REMARK  122  A    between atoms: _290  and  _291
REMARK  123  A    between atoms: _290  and  _292
REMARK  124  A    between atoms: _291  and  MG_664
REMARK  125  A    between atoms: _295  and  _297
REMARK  126  A    between atoms: _297  and  _298
REMARK  127  A    between atoms: _300  and  _302
REMARK  128  A    between atoms: _302  and  _303
REMARK  129  A    between atoms: _302  and  _305
REMARK  130  A    between atoms: _305  and  _306
REMARK  131  A    between atoms: _309  and  _311
REMARK  132  A    between atoms: _311  and  _312
REMARK  133  A    between atoms: _311  and  _314
REMARK  134  A    between atoms: _314  and  _315
REMARK  135  A    between atoms: _320  and  _321
REMARK  136  A    between atoms: _323  and  _325
REMARK  137  A    between atoms: _325  and  _326
REMARK  138  A    between atoms: _328  and  _330
REMARK  139  A    between atoms: _330  and  _331
REMARK  140  A    between atoms: _334  and  _336
REMARK  141  A    between atoms: _336  and  _337
REMARK  142  A    between atoms: _336  and  _339
REMARK  143  A    between atoms: _339  and  _340
REMARK  144  A    between atoms: _343  and  _345
REMARK  145  A    between atoms: _345  and  _346
REMARK  146  A    between atoms: _345  and  _348
REMARK  147  A    between atoms: _348  and  _349
REMARK  148  A    between atoms: _349  and  _350
REMARK  149  A    between atoms: _350  and  _351
REMARK  150  A    between atoms: _360  and  _362
REMARK  151  A    between atoms: _362  and  _363
REMARK  152  A    between atoms: _362  and  _365
REMARK  153  A    between atoms: _365  and  _366
REMARK  154  A    between atoms: _376  and  _378
REMARK  155  A    between atoms: _378  and  _379
REMARK  156  A    between atoms: _378  and  _381
REMARK  157  A    between atoms: _381  and  _382
REMARK  158  A    between atoms: _388  and  _390
REMARK  159  A    between atoms: _390  and  _391
REMARK  160  A    between atoms: _394  and  _396
REMARK  161  A    between atoms: _396  and  _397
REMARK  162  A    between atoms: _399  and  _401
REMARK  163  A    between atoms: _401  and  _402
REMARK  164  A    between atoms: _401  and  _404
REMARK  165  A    between atoms: _404  and  _405
REMARK  166  A    between atoms: _408  and  _410
REMARK  167  A    between atoms: _410  and  _411
REMARK  168  A    between atoms: _410  and  _413
REMARK  169  A    between atoms: _416  and  _418
REMARK  170  A    between atoms: _418  and  _419
REMARK  171  A    between atoms: _418  and  _421
REMARK  172  A    between atoms: _421  and  _422
REMARK  173  A    between atoms: _428  and  _430
REMARK  174  A    between atoms: _430  and  _431
REMARK  175  A    between atoms: _430  and  _433
REMARK  176  A    between atoms: _433  and  _434
REMARK  177  A    between atoms: _437  and  _439
REMARK  178  A    between atoms: _439  and  _440
REMARK  179  A    between atoms: _439  and  _442
REMARK  180  A    between atoms: _445  and  _447
REMARK  181  A    between atoms: _447  and  _448
REMARK  182  A    between atoms: _447  and  _450
REMARK  183  A    between atoms: _450  and  _451
REMARK  184  A    between atoms: _457  and  _458
REMARK  185  A    between atoms: _463  and  _465
REMARK  186  A    between atoms: _465  and  _466
REMARK  187  A    between atoms: _468  and  _470
REMARK  188  A    between atoms: _470  and  _471
REMARK  189  A    between atoms: _470  and  _473
REMARK  190  A    between atoms: _473  and  _474
REMARK  191  A    between atoms: _476  and  _478
REMARK  192  A    between atoms: _478  and  _479
REMARK  193  A    between atoms: _478  and  _481
REMARK  194  A    between atoms: _481  and  _482
REMARK  195  A    between atoms: _487  and  _489
REMARK  196  A    between atoms: _489  and  _490
REMARK  197  A    between atoms: _489  and  _492
REMARK  198  A    between atoms: _492  and  _493
REMARK  199  A    between atoms: _493  and  _494
REMARK  200  A    between atoms: _497  and  _499
REMARK  201  A    between atoms: _499  and  _500
REMARK  202  A    between atoms: _499  and  _502
REMARK  203  A    between atoms: _502  and  _503
REMARK  204  A    between atoms: _506  and  _508
REMARK  205  A    between atoms: _508  and  _509
REMARK  206  A    between atoms: _508  and  _511
REMARK  207  A    between atoms: _511  and  _512
REMARK  208  A    between atoms: _515  and  _517
REMARK  209  A    between atoms: _517  and  _518
REMARK  210  A    between atoms: _521  and  _523
REMARK  211  A    between atoms: _523  and  _524
REMARK  212  A    between atoms: _523  and  _526
REMARK  213  A    between atoms: _526  and  _527
REMARK  214  A    between atoms: _530  and  _532
REMARK  215  A    between atoms: _532  and  _533
REMARK  216  A    between atoms: _532  and  _535
REMARK  217  A    between atoms: _535  and  _536
REMARK  218  A    between atoms: _536  and  _537
REMARK  219  A    between atoms: _542  and  _544
REMARK  220  A    between atoms: _544  and  _545
REMARK  221  A    between atoms: _544  and  _547
REMARK  222  A    between atoms: _547  and  _548
REMARK  223  A    between atoms: _548  and  _549
REMARK  224  A    between atoms: _552  and  _554
REMARK  225  A    between atoms: _554  and  _555
REMARK  226  A    between atoms: _558  and  _560
REMARK  227  A    between atoms: _560  and  _561
REMARK  228  A    between atoms: _560  and  _563
REMARK  229  A    between atoms: _563  and  _564
REMARK  230  A    between atoms: _567  and  _569
REMARK  231  A    between atoms: _569  and  _570
REMARK  232  A    between atoms: _569  and  _572
REMARK  233  A    between atoms: _572  and  _573
REMARK  234  A    between atoms: _578  and  _580
REMARK  235  A    between atoms: _580  and  _581
REMARK  236  A    between atoms: _580  and  _583
REMARK  237  A    between atoms: _583  and  _584
REMARK  238  A    between atoms: _586  and  _588
REMARK  239  A    between atoms: _588  and  _589
REMARK  240  A    between atoms: _592  and  _594
REMARK  241  A    between atoms: _594  and  _595
REMARK  242  A    between atoms: _598  and  _600
REMARK  243  A    between atoms: _600  and  _601
REMARK  244  A    between atoms: _603  and  _605
REMARK  245  A    between atoms: _605  and  _606
REMARK  246  A    between atoms: _605  and  _608
REMARK  247  A    between atoms: _608  and  _609
REMARK  248  A    between atoms: _612  and  _614
REMARK  249  A    between atoms: _614  and  _615
REMARK  250  A    between atoms: _617  and  _619
REMARK  251  A    between atoms: _619  and  _620
REMARK  252  A    between atoms: _619  and  _622
REMARK  253  A    between atoms: _622  and  _623
REMARK  254  A    between atoms: _628  and  _630
REMARK  255  A    between atoms: _630  and  _631
REMARK  256  A    between atoms: _634  and  _636
REMARK  257  A    between atoms: _636  and  _637
REMARK  258  A    between atoms: _636  and  _639
REMARK  259  A    between atoms: _639  and  _640
REMARK  260  A    between atoms: _640  and  _641
REMARK  261  A    between atoms: _646  and  _648
REMARK  262  A    between atoms: _648  and  _649
REMARK  263  A    between atoms: _648  and  _651
REMARK  264  A    between atoms: _651  and  _652
REMARK  265  A    between atoms: _655  and  _657
REMARK  266  A    between atoms: _657  and  _658
REMARK  267  A    between atoms: _657  and  _660
REMARK  268  A    between atoms: _660  and  _661
REMARK                            x       y       z     vdW  Elec       q    Type
REMARK                         _______ _______ _______ _____ _____    ______ ____
ROOT
ATOM      1  O   HOH     1     116.551  37.557  92.350  0.00  0.00    +0.000 OA
ENDROOT
TORSDOF 0
REMARK  Name = ../refined-set-2016/3fzn/3fzn_pocket.pdb
REMARK  268 active torsions:
REMARK  status: ('A' for Active; 'I' for Inactive)
REMARK    1  A    between atoms: _1  and  _3
REMARK    2  A    between atoms: _3  and  _4
REMARK    3  A    between atoms: _6  and  _8
REMARK    4  A    between atoms: _8  and  _9
REMARK    5  A    between atoms: _8  and  _11
REMARK    6  A    between atoms: _11  and  _12
REMARK    7  A    between atoms: _17  and  _19
REMARK    8  A    between atoms: _19  and  _20
REMARK    9  A    between atoms: _19  and  _22
REMARK   10  A    between atoms: _22  and  _23
REMARK   11  A    between atoms: _25  and  _27
REMARK   12  A    between atoms: _27  and  _28
REMARK   13  A    between atoms: _27  and  _30
REMARK   14  A    between atoms: _30  and  _31
REMARK   15  A    between atoms: _36  and  _38
REMARK   16  A    between atoms: _38  and  _39
REMARK   17  A    between atoms: _38  and  _41
REMARK   18  A    between atoms: _41  and  _42
REMARK   19  A    between atoms: _42  and  _43
REMARK   20  A    between atoms: _49  and  _50
REMARK   21  A    between atoms: _55  and  _57
REMARK   22  A    between atoms: _57  and  _58
REMARK   23  A    between atoms: _57  and  _60
REMARK   24  A    between atoms: _60  and  _61
REMARK   25  A    between atoms: _66  and  _68
REMARK   26  A    between atoms: _68  and  _69
REMARK   27  A    between atoms: _68  and  _71
REMARK   28  A    between atoms: _71  and  _72
REMARK   29  A    between atoms: _72  and  _73
REMARK   30  A    between atoms: _76  and  _78
REMARK   31  A    between atoms: _78  and  _79
REMARK   32  A    between atoms: _78  and  _81
REMARK   33  A    between atoms: _81  and  _82
REMARK   34  A    between atoms: _84  and  _86
REMARK   35  A    between atoms: _86  and  _87
REMARK   36  A    between atoms: _86  and  _89
REMARK   37  A    between atoms: _89  and  _90
REMARK   38  A    between atoms: _93  and  _95
REMARK   39  A    between atoms: _95  and  _96
REMARK   40  A    between atoms: _95  and  _98
REMARK   41  A    between atoms: _98  and  _99
REMARK   42  A    between atoms: _101  and  _103
REMARK   43  A    between atoms: _103  and  _104
REMARK   44  A    between atoms: _103  and  _106
REMARK   45  A    between atoms: _106  and  _107
REMARK   46  A    between atoms: _110  and  _112
REMARK   47  A    between atoms: _112  and  _113
REMARK   48  A    between atoms: _112  and  _115
REMARK   49  A    between atoms: _115  and  _116
REMARK   50  A    between atoms: _119  and  _121
REMARK   51  A    between atoms: _121  and  _122
REMARK   52  A    between atoms: _121  and  _124
REMARK   53  A    between atoms: _124  and  _125
REMARK   54  A    between atoms: _131  and  _133
REMARK   55  A    between atoms: _133  and  _134
REMARK   56  A    between atoms: _133  and  _136
REMARK   57  A    between atoms: _138  and  _140
REMARK   58  A    between atoms: _140  and  _141
REMARK   59  A    between atoms: _144  and  _146
REMARK   60  A    between atoms: _146  and  _147
REMARK   61  A    between atoms: _149  and  _151
REMARK   62  A    between atoms: _151  and  _152
REMARK   63  A    between atoms: _154  and  _156
REMARK   64  A    between atoms: _156  and  _157
REMARK   65  A    between atoms: _156  and  _159
REMARK   66  A    between atoms: _159  and  _160
REMARK   67  A    between atoms: _163  and  _165
REMARK   68  A    between atoms: _165  and  _166
REMARK   69  A    between atoms: _168  and  _170
REMARK   70  A    between atoms: _170  and  _171
REMARK   71  A    between atoms: _170  and  _173
REMARK   72  A    between atoms: _173  and  _174
REMARK   73  A    between atoms: _180  and  _182
REMARK   74  A    between atoms: _182  and  _183
REMARK   75  A    between atoms: _182  and  _185
REMARK   76  A    between atoms: _188  and  _190
REMARK   77  A    between atoms: _190  and  _191
REMARK   78  A    between atoms: _190  and  _193
REMARK   79  A    between atoms: _193  and  _194
REMARK   80  A    between atoms: _197  and  _199
REMARK   81  A    between atoms: _199  and  _200
REMARK   82  A    between atoms: _202  and  _204
REMARK   83  A    between atoms: _204  and  _205
REMARK   84  A    between atoms: _204  and  _207
REMARK   85  A    between atoms: _207  and  _208
REMARK   86  A    between atoms: _208  and  _209
REMARK   87  A    between atoms: _209  and  MG_664
REMARK   88  A    between atoms: _211  and  _213
REMARK   89  A    between atoms: _213  and  _214
REMARK   90  A    between atoms: _216  and  _218
REMARK   91  A    between atoms: _218  and  _219
REMARK   92  A    between atoms: _218  and  _221
REMARK   93  A    between atoms: _221  and  _222
REMARK   94  A    between atoms: _224  and  _226
REMARK   95  A    between atoms: _226  and  _227
REMARK   96  A    between atoms: _230  and  _232
REMARK   97  A    between atoms: _232  and  _233
REMARK   98  A    between atoms: _232  and  _235
REMARK   99  A    between atoms: _235  and  _236
REMARK  100  A    between atoms: _241  and  _243
REMARK  101  A    between atoms: _243  and  _244
REMARK  102  A    between atoms: _243  and  _246
REMARK  103  A    between atoms: _246  and  _247
REMARK  104  A    between atoms: _252  and  _253
REMARK  105  A    between atoms: _255  and  _257
REMARK  106  A    between atoms: _257  and  _258
REMARK  107  A    between atoms: _257  and  _260
REMARK  108  A    between atoms: _260  and  _261
REMARK  109  A    between atoms: _264  and  _266
REMARK  110  A    between atoms: _266  and  _267
REMARK  111  A    between atoms: _266  and  _269
REMARK  112  A    between atoms: _269  and  _270
REMARK  113  A    between atoms: _270  and  _271
REMARK  114  A    between atoms: _273  and  _275
REMARK  115  A    between atoms: _275  and  _276
REMARK  116  A    between atoms: _275  and  _278
REMARK  117  A    between atoms: _278  and  _279
REMARK  118  A    between atoms: _284  and  _286
REMARK  119  A    between atoms: _286  and  _287
REMARK  120  A    between atoms: _286  and  _289
REMARK  121  A    between atoms: _289  and  _290
REMARK  122  A    between atoms: _290  and  _291
REMARK  123  A    between atoms: _290  and  _292
REMARK  124  A    between atoms: _291  and  MG_664
REMARK  125  A    between atoms: _295  and  _297
REMARK  126  A    between atoms: _297  and  _298
REMARK  127  A    between atoms: _300  and  _302
REMARK  128  A    between atoms: _302  and  _303
REMARK  129  A    between atoms: _302  and  _305
REMARK  130  A    between atoms: _305  and  _306
REMARK  131  A    between atoms: _309  and  _311
REMARK  132  A    between atoms: _311  and  _312
REMARK  133  A    between atoms: _311  and  _314
REMARK  134  A    between atoms: _314  and  _315
REMARK  135  A    between atoms: _320  and  _321
REMARK  136  A    between atoms: _323  and  _325
REMARK  137  A    between atoms: _325  and  _326
REMARK  138  A    between atoms: _328  and  _330
REMARK  139  A    between atoms: _330  and  _331
REMARK  140  A    between atoms: _334  and  _336
REMARK  141  A    between atoms: _336  and  _337
REMARK  142  A    between atoms: _336  and  _339
REMARK  143  A    between atoms: _339  and  _340
REMARK  144  A    between atoms: _343  and  _345
REMARK  145  A    between atoms: _345  and  _346
REMARK  146  A    between atoms: _345  and  _348
REMARK  147  A    between atoms: _348  and  _349
REMARK  148  A    between atoms: _349  and  _350
REMARK  149  A    between atoms: _350  and  _351
REMARK  150  A    between atoms: _360  and  _362
REMARK  151  A    between atoms: _362  and  _363
REMARK  152  A    between atoms: _362  and  _365
REMARK  153  A    between atoms: _365  and  _366
REMARK  154  A    between atoms: _376  and  _378
REMARK  155  A    between atoms: _378  and  _379
REMARK  156  A    between atoms: _378  and  _381
REMARK  157  A    between atoms: _381  and  _382
REMARK  158  A    between atoms: _388  and  _390
REMARK  159  A    between atoms: _390  and  _391
REMARK  160  A    between atoms: _394  and  _396
REMARK  161  A    between atoms: _396  and  _397
REMARK  162  A    between atoms: _399  and  _401
REMARK  163  A    between atoms: _401  and  _402
REMARK  164  A    between atoms: _401  and  _404
REMARK  165  A    between atoms: _404  and  _405
REMARK  166  A    between atoms: _408  and  _410
REMARK  167  A    between atoms: _410  and  _411
REMARK  168  A    between atoms: _410  and  _413
REMARK  169  A    between atoms: _416  and  _418
REMARK  170  A    between atoms: _418  and  _419
REMARK  171  A    between atoms: _418  and  _421
REMARK  172  A    between atoms: _421  and  _422
REMARK  173  A    between atoms: _428  and  _430
REMARK  174  A    between atoms: _430  and  _431
REMARK  175  A    between atoms: _430  and  _433
REMARK  176  A    between atoms: _433  and  _434
REMARK  177  A    between atoms: _437  and  _439
REMARK  178  A    between atoms: _439  and  _440
REMARK  179  A    between atoms: _439  and  _442
REMARK  180  A    between atoms: _445  and  _447
REMARK  181  A    between atoms: _447  and  _448
REMARK  182  A    between atoms: _447  and  _450
REMARK  183  A    between atoms: _450  and  _451
REMARK  184  A    between atoms: _457  and  _458
REMARK  185  A    between atoms: _463  and  _465
REMARK  186  A    between atoms: _465  and  _466
REMARK  187  A    between atoms: _468  and  _470
REMARK  188  A    between atoms: _470  and  _471
REMARK  189  A    between atoms: _470  and  _473
REMARK  190  A    between atoms: _473  and  _474
REMARK  191  A    between atoms: _476  and  _478
REMARK  192  A    between atoms: _478  and  _479
REMARK  193  A    between atoms: _478  and  _481
REMARK  194  A    between atoms: _481  and  _482
REMARK  195  A    between atoms: _487  and  _489
REMARK  196  A    between atoms: _489  and  _490
REMARK  197  A    between atoms: _489  and  _492
REMARK  198  A    between atoms: _492  and  _493
REMARK  199  A    between atoms: _493  and  _494
REMARK  200  A    between atoms: _497  and  _499
REMARK  201  A    between atoms: _499  and  _500
REMARK  202  A    between atoms: _499  and  _502
REMARK  203  A    between atoms: _502  and  _503
REMARK  204  A    between atoms: _506  and  _508
REMARK  205  A    between atoms: _508  and  _509
REMARK  206  A    between atoms: _508  and  _511
REMARK  207  A    between atoms: _511  and  _512
REMARK  208  A    between atoms: _515  and  _517
REMARK  209  A    between atoms: _517  and  _518
REMARK  210  A    between atoms: _521  and  _523
REMARK  211  A    between atoms: _523  and  _524
REMARK  212  A    between atoms: _523  and  _526
REMARK  213  A    between atoms: _526  and  _527
REMARK  214  A    between atoms: _530  and  _532
REMARK  215  A    between atoms: _532  and  _533
REMARK  216  A    between atoms: _532  and  _535
REMARK  217  A    between atoms: _535  and  _536
REMARK  218  A    between atoms: _536  and  _537
REMARK  219  A    between atoms: _542  and  _544
REMARK  220  A    between atoms: _544  and  _545
REMARK  221  A    between atoms: _544  and  _547
REMARK  222  A    between atoms: _547  and  _548
REMARK  223  A    between atoms: _548  and  _549
REMARK  224  A    between atoms: _552  and  _554
REMARK  225  A    between atoms: _554  and  _555
REMARK  226  A    between atoms: _558  and  _560
REMARK  227  A    between atoms: _560  and  _561
REMARK  228  A    between atoms: _560  and  _563
REMARK  229  A    between atoms: _563  and  _564
REMARK  230  A    between atoms: _567  and  _569
REMARK  231  A    between atoms: _569  and  _570
REMARK  232  A    between atoms: _569  and  _572
REMARK  233  A    between atoms: _572  and  _573
REMARK  234  A    between atoms: _578  and  _580
REMARK  235  A    between atoms: _580  and  _581
REMARK  236  A    between atoms: _580  and  _583
REMARK  237  A    between atoms: _583  and  _584
REMARK  238  A    between atoms: _586  and  _588
REMARK  239  A    between atoms: _588  and  _589
REMARK  240  A    between atoms: _592  and  _594
REMARK  241  A    between atoms: _594  and  _595
REMARK  242  A    between atoms: _598  and  _600
REMARK  243  A    between atoms: _600  and  _601
REMARK  244  A    between atoms: _603  and  _605
REMARK  245  A    between atoms: _605  and  _606
REMARK  246  A    between atoms: _605  and  _608
REMARK  247  A    between atoms: _608  and  _609
REMARK  248  A    between atoms: _612  and  _614
REMARK  249  A    between atoms: _614  and  _615
REMARK  250  A    between atoms: _617  and  _619
REMARK  251  A    between atoms: _619  and  _620
REMARK  252  A    between atoms: _619  and  _622
REMARK  253  A    between atoms: _622  and  _623
REMARK  254  A    between atoms: _628  and  _630
REMARK  255  A    between atoms: _630  and  _631
REMARK  256  A    between atoms: _634  and  _636
REMARK  257  A    between atoms: _636  and  _637
REMARK  258  A    between atoms: _636  and  _639
REMARK  259  A    between atoms: _639  and  _640
REMARK  260  A    between atoms: _640  and  _641
REMARK  261  A    between atoms: _646  and  _648
REMARK  262  A    between atoms: _648  and  _649
REMARK  263  A    between atoms: _648  and  _651
REMARK  264  A    between atoms: _651  and  _652
REMARK  265  A    between atoms: _655  and  _657
REMARK  266  A    between atoms: _657  and  _658
REMARK  267  A    between atoms: _657  and  _660
REMARK  268  A    between atoms: _660  and  _661
REMARK                            x       y       z     vdW  Elec       q    Type
REMARK                         _______ _______ _______ _____ _____    ______ ____
ROOT
ATOM      1  O   HOH     1     114.353  42.214  89.959  0.00  0.00    +0.000 OA
ENDROOT
TORSDOF 0
REMARK  Name = ../refined-set-2016/3fzn/3fzn_pocket.pdb
REMARK  268 active torsions:
REMARK  status: ('A' for Active; 'I' for Inactive)
REMARK    1  A    between atoms: _1  and  _3
REMARK    2  A    between atoms: _3  and  _4
REMARK    3  A    between atoms: _6  and  _8
REMARK    4  A    between atoms: _8  and  _9
REMARK    5  A    between atoms: _8  and  _11
REMARK    6  A    between atoms: _11  and  _12
REMARK    7  A    between atoms: _17  and  _19
REMARK    8  A    between atoms: _19  and  _20
REMARK    9  A    between atoms: _19  and  _22
REMARK   10  A    between atoms: _22  and  _23
REMARK   11  A    between atoms: _25  and  _27
REMARK   12  A    between atoms: _27  and  _28
REMARK   13  A    between atoms: _27  and  _30
REMARK   14  A    between atoms: _30  and  _31
REMARK   15  A    between atoms: _36  and  _38
REMARK   16  A    between atoms: _38  and  _39
REMARK   17  A    between atoms: _38  and  _41
REMARK   18  A    between atoms: _41  and  _42
REMARK   19  A    between atoms: _42  and  _43
REMARK   20  A    between atoms: _49  and  _50
REMARK   21  A    between atoms: _55  and  _57
REMARK   22  A    between atoms: _57  and  _58
REMARK   23  A    between atoms: _57  and  _60
REMARK   24  A    between atoms: _60  and  _61
REMARK   25  A    between atoms: _66  and  _68
REMARK   26  A    between atoms: _68  and  _69
REMARK   27  A    between atoms: _68  and  _71
REMARK   28  A    between atoms: _71  and  _72
REMARK   29  A    between atoms: _72  and  _73
REMARK   30  A    between atoms: _76  and  _78
REMARK   31  A    between atoms: _78  and  _79
REMARK   32  A    between atoms: _78  and  _81
REMARK   33  A    between atoms: _81  and  _82
REMARK   34  A    between atoms: _84  and  _86
REMARK   35  A    between atoms: _86  and  _87
REMARK   36  A    between atoms: _86  and  _89
REMARK   37  A    between atoms: _89  and  _90
REMARK   38  A    between atoms: _93  and  _95
REMARK   39  A    between atoms: _95  and  _96
REMARK   40  A    between atoms: _95  and  _98
REMARK   41  A    between atoms: _98  and  _99
REMARK   42  A    between atoms: _101  and  _103
REMARK   43  A    between atoms: _103  and  _104
REMARK   44  A    between atoms: _103  and  _106
REMARK   45  A    between atoms: _106  and  _107
REMARK   46  A    between atoms: _110  and  _112
REMARK   47  A    between atoms: _112  and  _113
REMARK   48  A    between atoms: _112  and  _115
REMARK   49  A    between atoms: _115  and  _116
REMARK   50  A    between atoms: _119  and  _121
REMARK   51  A    between atoms: _121  and  _122
REMARK   52  A    between atoms: _121  and  _124
REMARK   53  A    between atoms: _124  and  _125
REMARK   54  A    between atoms: _131  and  _133
REMARK   55  A    between atoms: _133  and  _134
REMARK   56  A    between atoms: _133  and  _136
REMARK   57  A    between atoms: _138  and  _140
REMARK   58  A    between atoms: _140  and  _141
REMARK   59  A    between atoms: _144  and  _146
REMARK   60  A    between atoms: _146  and  _147
REMARK   61  A    between atoms: _149  and  _151
REMARK   62  A    between atoms: _151  and  _152
REMARK   63  A    between atoms: _154  and  _156
REMARK   64  A    between atoms: _156  and  _157
REMARK   65  A    between atoms: _156  and  _159
REMARK   66  A    between atoms: _159  and  _160
REMARK   67  A    between atoms: _163  and  _165
REMARK   68  A    between atoms: _165  and  _166
REMARK   69  A    between atoms: _168  and  _170
REMARK   70  A    between atoms: _170  and  _171
REMARK   71  A    between atoms: _170  and  _173
REMARK   72  A    between atoms: _173  and  _174
REMARK   73  A    between atoms: _180  and  _182
REMARK   74  A    between atoms: _182  and  _183
REMARK   75  A    between atoms: _182  and  _185
REMARK   76  A    between atoms: _188  and  _190
REMARK   77  A    between atoms: _190  and  _191
REMARK   78  A    between atoms: _190  and  _193
REMARK   79  A    between atoms: _193  and  _194
REMARK   80  A    between atoms: _197  and  _199
REMARK   81  A    between atoms: _199  and  _200
REMARK   82  A    between atoms: _202  and  _204
REMARK   83  A    between atoms: _204  and  _205
REMARK   84  A    between atoms: _204  and  _207
REMARK   85  A    between atoms: _207  and  _208
REMARK   86  A    between atoms: _208  and  _209
REMARK   87  A    between atoms: _209  and  MG_664
REMARK   88  A    between atoms: _211  and  _213
REMARK   89  A    between atoms: _213  and  _214
REMARK   90  A    between atoms: _216  and  _218
REMARK   91  A    between atoms: _218  and  _219
REMARK   92  A    between atoms: _218  and  _221
REMARK   93  A    between atoms: _221  and  _222
REMARK   94  A    between atoms: _224  and  _226
REMARK   95  A    between atoms: _226  and  _227
REMARK   96  A    between atoms: _230  and  _232
REMARK   97  A    between atoms: _232  and  _233
REMARK   98  A    between atoms: _232  and  _235
REMARK   99  A    between atoms: _235  and  _236
REMARK  100  A    between atoms: _241  and  _243
REMARK  101  A    between atoms: _243  and  _244
REMARK  102  A    between atoms: _243  and  _246
REMARK  103  A    between atoms: _246  and  _247
REMARK  104  A    between atoms: _252  and  _253
REMARK  105  A    between atoms: _255  and  _257
REMARK  106  A    between atoms: _257  and  _258
REMARK  107  A    between atoms: _257  and  _260
REMARK  108  A    between atoms: _260  and  _261
REMARK  109  A    between atoms: _264  and  _266
REMARK  110  A    between atoms: _266  and  _267
REMARK  111  A    between atoms: _266  and  _269
REMARK  112  A    between atoms: _269  and  _270
REMARK  113  A    between atoms: _270  and  _271
REMARK  114  A    between atoms: _273  and  _275
REMARK  115  A    between atoms: _275  and  _276
REMARK  116  A    between atoms: _275  and  _278
REMARK  117  A    between atoms: _278  and  _279
REMARK  118  A    between atoms: _284  and  _286
REMARK  119  A    between atoms: _286  and  _287
REMARK  120  A    between atoms: _286  and  _289
REMARK  121  A    between atoms: _289  and  _290
REMARK  122  A    between atoms: _290  and  _291
REMARK  123  A    between atoms: _290  and  _292
REMARK  124  A    between atoms: _291  and  MG_664
REMARK  125  A    between atoms: _295  and  _297
REMARK  126  A    between atoms: _297  and  _298
REMARK  127  A    between atoms: _300  and  _302
REMARK  128  A    between atoms: _302  and  _303
REMARK  129  A    between atoms: _302  and  _305
REMARK  130  A    between atoms: _305  and  _306
REMARK  131  A    between atoms: _309  and  _311
REMARK  132  A    between atoms: _311  and  _312
REMARK  133  A    between atoms: _311  and  _314
REMARK  134  A    between atoms: _314  and  _315
REMARK  135  A    between atoms: _320  and  _321
REMARK  136  A    between atoms: _323  and  _325
REMARK  137  A    between atoms: _325  and  _326
REMARK  138  A    between atoms: _328  and  _330
REMARK  139  A    between atoms: _330  and  _331
REMARK  140  A    between atoms: _334  and  _336
REMARK  141  A    between atoms: _336  and  _337
REMARK  142  A    between atoms: _336  and  _339
REMARK  143  A    between atoms: _339  and  _340
REMARK  144  A    between atoms: _343  and  _345
REMARK  145  A    between atoms: _345  and  _346
REMARK  146  A    between atoms: _345  and  _348
REMARK  147  A    between atoms: _348  and  _349
REMARK  148  A    between atoms: _349  and  _350
REMARK  149  A    between atoms: _350  and  _351
REMARK  150  A    between atoms: _360  and  _362
REMARK  151  A    between atoms: _362  and  _363
REMARK  152  A    between atoms: _362  and  _365
REMARK  153  A    between atoms: _365  and  _366
REMARK  154  A    between atoms: _376  and  _378
REMARK  155  A    between atoms: _378  and  _379
REMARK  156  A    between atoms: _378  and  _381
REMARK  157  A    between atoms: _381  and  _382
REMARK  158  A    between atoms: _388  and  _390
REMARK  159  A    between atoms: _390  and  _391
REMARK  160  A    between atoms: _394  and  _396
REMARK  161  A    between atoms: _396  and  _397
REMARK  162  A    between atoms: _399  and  _401
REMARK  163  A    between atoms: _401  and  _402
REMARK  164  A    between atoms: _401  and  _404
REMARK  165  A    between atoms: _404  and  _405
REMARK  166  A    between atoms: _408  and  _410
REMARK  167  A    between atoms: _410  and  _411
REMARK  168  A    between atoms: _410  and  _413
REMARK  169  A    between atoms: _416  and  _418
REMARK  170  A    between atoms: _418  and  _419
REMARK  171  A    between atoms: _418  and  _421
REMARK  172  A    between atoms: _421  and  _422
REMARK  173  A    between atoms: _428  and  _430
REMARK  174  A    between atoms: _430  and  _431
REMARK  175  A    between atoms: _430  and  _433
REMARK  176  A    between atoms: _433  and  _434
REMARK  177  A    between atoms: _437  and  _439
REMARK  178  A    between atoms: _439  and  _440
REMARK  179  A    between atoms: _439  and  _442
REMARK  180  A    between atoms: _445  and  _447
REMARK  181  A    between atoms: _447  and  _448
REMARK  182  A    between atoms: _447  and  _450
REMARK  183  A    between atoms: _450  and  _451
REMARK  184  A    between atoms: _457  and  _458
REMARK  185  A    between atoms: _463  and  _465
REMARK  186  A    between atoms: _465  and  _466
REMARK  187  A    between atoms: _468  and  _470
REMARK  188  A    between atoms: _470  and  _471
REMARK  189  A    between atoms: _470  and  _473
REMARK  190  A    between atoms: _473  and  _474
REMARK  191  A    between atoms: _476  and  _478
REMARK  192  A    between atoms: _478  and  _479
REMARK  193  A    between atoms: _478  and  _481
REMARK  194  A    between atoms: _481  and  _482
REMARK  195  A    between atoms: _487  and  _489
REMARK  196  A    between atoms: _489  and  _490
REMARK  197  A    between atoms: _489  and  _492
REMARK  198  A    between atoms: _492  and  _493
REMARK  199  A    between atoms: _493  and  _494
REMARK  200  A    between atoms: _497  and  _499
REMARK  201  A    between atoms: _499  and  _500
REMARK  202  A    between atoms: _499  and  _502
REMARK  203  A    between atoms: _502  and  _503
REMARK  204  A    between atoms: _506  and  _508
REMARK  205  A    between atoms: _508  and  _509
REMARK  206  A    between atoms: _508  and  _511
REMARK  207  A    between atoms: _511  and  _512
REMARK  208  A    between atoms: _515  and  _517
REMARK  209  A    between atoms: _517  and  _518
REMARK  210  A    between atoms: _521  and  _523
REMARK  211  A    between atoms: _523  and  _524
REMARK  212  A    between atoms: _523  and  _526
REMARK  213  A    between atoms: _526  and  _527
REMARK  214  A    between atoms: _530  and  _532
REMARK  215  A    between atoms: _532  and  _533
REMARK  216  A    between atoms: _532  and  _535
REMARK  217  A    between atoms: _535  and  _536
REMARK  218  A    between atoms: _536  and  _537
REMARK  219  A    between atoms: _542  and  _544
REMARK  220  A    between atoms: _544  and  _545
REMARK  221  A    between atoms: _544  and  _547
REMARK  222  A    between atoms: _547  and  _548
REMARK  223  A    between atoms: _548  and  _549
REMARK  224  A    between atoms: _552  and  _554
REMARK  225  A    between atoms: _554  and  _555
REMARK  226  A    between atoms: _558  and  _560
REMARK  227  A    between atoms: _560  and  _561
REMARK  228  A    between atoms: _560  and  _563
REMARK  229  A    between atoms: _563  and  _564
REMARK  230  A    between atoms: _567  and  _569
REMARK  231  A    between atoms: _569  and  _570
REMARK  232  A    between atoms: _569  and  _572
REMARK  233  A    between atoms: _572  and  _573
REMARK  234  A    between atoms: _578  and  _580
REMARK  235  A    between atoms: _580  and  _581
REMARK  236  A    between atoms: _580  and  _583
REMARK  237  A    between atoms: _583  and  _584
REMARK  238  A    between atoms: _586  and  _588
REMARK  239  A    between atoms: _588  and  _589
REMARK  240  A    between atoms: _592  and  _594
REMARK  241  A    between atoms: _594  and  _595
REMARK  242  A    between atoms: _598  and  _600
REMARK  243  A    between atoms: _600  and  _601
REMARK  244  A    between atoms: _603  and  _605
REMARK  245  A    between atoms: _605  and  _606
REMARK  246  A    between atoms: _605  and  _608
REMARK  247  A    between atoms: _608  and  _609
REMARK  248  A    between atoms: _612  and  _614
REMARK  249  A    between atoms: _614  and  _615
REMARK  250  A    between atoms: _617  and  _619
REMARK  251  A    between atoms: _619  and  _620
REMARK  252  A    between atoms: _619  and  _622
REMARK  253  A    between atoms: _622  and  _623
REMARK  254  A    between atoms: _628  and  _630
REMARK  255  A    between atoms: _630  and  _631
REMARK  256  A    between atoms: _634  and  _636
REMARK  257  A    between atoms: _636  and  _637
REMARK  258  A    between atoms: _636  and  _639
REMARK  259  A    between atoms: _639  and  _640
REMARK  260  A    between atoms: _640  and  _641
REMARK  261  A    between atoms: _646  and  _648
REMARK  262  A    between atoms: _648  and  _649
REMARK  263  A    between atoms: _648  and  _651
REMARK  264  A    between atoms: _651  and  _652
REMARK  265  A    between atoms: _655  and  _657
REMARK  266  A    between atoms: _657  and  _658
REMARK  267  A    between atoms: _657  and  _660
REMARK  268  A    between atoms: _660  and  _661
REMARK                            x       y       z     vdW  Elec       q    Type
REMARK                         _______ _______ _______ _____ _____    ______ ____
ROOT
ATOM      1  O   HOH     1     113.167  39.732  88.309  0.00  0.00    +0.000 OA
ENDROOT
TORSDOF 0
REMARK  Name = ../refined-set-2016/3fzn/3fzn_pocket.pdb
REMARK  268 active torsions:
REMARK  status: ('A' for Active; 'I' for Inactive)
REMARK    1  A    between atoms: _1  and  _3
REMARK    2  A    between atoms: _3  and  _4
REMARK    3  A    between atoms: _6  and  _8
REMARK    4  A    between atoms: _8  and  _9
REMARK    5  A    between atoms: _8  and  _11
REMARK    6  A    between atoms: _11  and  _12
REMARK    7  A    between atoms: _17  and  _19
REMARK    8  A    between atoms: _19  and  _20
REMARK    9  A    between atoms: _19  and  _22
REMARK   10  A    between atoms: _22  and  _23
REMARK   11  A    between atoms: _25  and  _27
REMARK   12  A    between atoms: _27  and  _28
REMARK   13  A    between atoms: _27  and  _30
REMARK   14  A    between atoms: _30  and  _31
REMARK   15  A    between atoms: _36  and  _38
REMARK   16  A    between atoms: _38  and  _39
REMARK   17  A    between atoms: _38  and  _41
REMARK   18  A    between atoms: _41  and  _42
REMARK   19  A    between atoms: _42  and  _43
REMARK   20  A    between atoms: _49  and  _50
REMARK   21  A    between atoms: _55  and  _57
REMARK   22  A    between atoms: _57  and  _58
REMARK   23  A    between atoms: _57  and  _60
REMARK   24  A    between atoms: _60  and  _61
REMARK   25  A    between atoms: _66  and  _68
REMARK   26  A    between atoms: _68  and  _69
REMARK   27  A    between atoms: _68  and  _71
REMARK   28  A    between atoms: _71  and  _72
REMARK   29  A    between atoms: _72  and  _73
REMARK   30  A    between atoms: _76  and  _78
REMARK   31  A    between atoms: _78  and  _79
REMARK   32  A    between atoms: _78  and  _81
REMARK   33  A    between atoms: _81  and  _82
REMARK   34  A    between atoms: _84  and  _86
REMARK   35  A    between atoms: _86  and  _87
REMARK   36  A    between atoms: _86  and  _89
REMARK   37  A    between atoms: _89  and  _90
REMARK   38  A    between atoms: _93  and  _95
REMARK   39  A    between atoms: _95  and  _96
REMARK   40  A    between atoms: _95  and  _98
REMARK   41  A    between atoms: _98  and  _99
REMARK   42  A    between atoms: _101  and  _103
REMARK   43  A    between atoms: _103  and  _104
REMARK   44  A    between atoms: _103  and  _106
REMARK   45  A    between atoms: _106  and  _107
REMARK   46  A    between atoms: _110  and  _112
REMARK   47  A    between atoms: _112  and  _113
REMARK   48  A    between atoms: _112  and  _115
REMARK   49  A    between atoms: _115  and  _116
REMARK   50  A    between atoms: _119  and  _121
REMARK   51  A    between atoms: _121  and  _122
REMARK   52  A    between atoms: _121  and  _124
REMARK   53  A    between atoms: _124  and  _125
REMARK   54  A    between atoms: _131  and  _133
REMARK   55  A    between atoms: _133  and  _134
REMARK   56  A    between atoms: _133  and  _136
REMARK   57  A    between atoms: _138  and  _140
REMARK   58  A    between atoms: _140  and  _141
REMARK   59  A    between atoms: _144  and  _146
REMARK   60  A    between atoms: _146  and  _147
REMARK   61  A    between atoms: _149  and  _151
REMARK   62  A    between atoms: _151  and  _152
REMARK   63  A    between atoms: _154  and  _156
REMARK   64  A    between atoms: _156  and  _157
REMARK   65  A    between atoms: _156  and  _159
REMARK   66  A    between atoms: _159  and  _160
REMARK   67  A    between atoms: _163  and  _165
REMARK   68  A    between atoms: _165  and  _166
REMARK   69  A    between atoms: _168  and  _170
REMARK   70  A    between atoms: _170  and  _171
REMARK   71  A    between atoms: _170  and  _173
REMARK   72  A    between atoms: _173  and  _174
REMARK   73  A    between atoms: _180  and  _182
REMARK   74  A    between atoms: _182  and  _183
REMARK   75  A    between atoms: _182  and  _185
REMARK   76  A    between atoms: _188  and  _190
REMARK   77  A    between atoms: _190  and  _191
REMARK   78  A    between atoms: _190  and  _193
REMARK   79  A    between atoms: _193  and  _194
REMARK   80  A    between atoms: _197  and  _199
REMARK   81  A    between atoms: _199  and  _200
REMARK   82  A    between atoms: _202  and  _204
REMARK   83  A    between atoms: _204  and  _205
REMARK   84  A    between atoms: _204  and  _207
REMARK   85  A    between atoms: _207  and  _208
REMARK   86  A    between atoms: _208  and  _209
REMARK   87  A    between atoms: _209  and  MG_664
REMARK   88  A    between atoms: _211  and  _213
REMARK   89  A    between atoms: _213  and  _214
REMARK   90  A    between atoms: _216  and  _218
REMARK   91  A    between atoms: _218  and  _219
REMARK   92  A    between atoms: _218  and  _221
REMARK   93  A    between atoms: _221  and  _222
REMARK   94  A    between atoms: _224  and  _226
REMARK   95  A    between atoms: _226  and  _227
REMARK   96  A    between atoms: _230  and  _232
REMARK   97  A    between atoms: _232  and  _233
REMARK   98  A    between atoms: _232  and  _235
REMARK   99  A    between atoms: _235  and  _236
REMARK  100  A    between atoms: _241  and  _243
REMARK  101  A    between atoms: _243  and  _244
REMARK  102  A    between atoms: _243  and  _246
REMARK  103  A    between atoms: _246  and  _247
REMARK  104  A    between atoms: _252  and  _253
REMARK  105  A    between atoms: _255  and  _257
REMARK  106  A    between atoms: _257  and  _258
REMARK  107  A    between atoms: _257  and  _260
REMARK  108  A    between atoms: _260  and  _261
REMARK  109  A    between atoms: _264  and  _266
REMARK  110  A    between atoms: _266  and  _267
REMARK  111  A    between atoms: _266  and  _269
REMARK  112  A    between atoms: _269  and  _270
REMARK  113  A    between atoms: _270  and  _271
REMARK  114  A    between atoms: _273  and  _275
REMARK  115  A    between atoms: _275  and  _276
REMARK  116  A    between atoms: _275  and  _278
REMARK  117  A    between atoms: _278  and  _279
REMARK  118  A    between atoms: _284  and  _286
REMARK  119  A    between atoms: _286  and  _287
REMARK  120  A    between atoms: _286  and  _289
REMARK  121  A    between atoms: _289  and  _290
REMARK  122  A    between atoms: _290  and  _291
REMARK  123  A    between atoms: _290  and  _292
REMARK  124  A    between atoms: _291  and  MG_664
REMARK  125  A    between atoms: _295  and  _297
REMARK  126  A    between atoms: _297  and  _298
REMARK  127  A    between atoms: _300  and  _302
REMARK  128  A    between atoms: _302  and  _303
REMARK  129  A    between atoms: _302  and  _305
REMARK  130  A    between atoms: _305  and  _306
REMARK  131  A    between atoms: _309  and  _311
REMARK  132  A    between atoms: _311  and  _312
REMARK  133  A    between atoms: _311  and  _314
REMARK  134  A    between atoms: _314  and  _315
REMARK  135  A    between atoms: _320  and  _321
REMARK  136  A    between atoms: _323  and  _325
REMARK  137  A    between atoms: _325  and  _326
REMARK  138  A    between atoms: _328  and  _330
REMARK  139  A    between atoms: _330  and  _331
REMARK  140  A    between atoms: _334  and  _336
REMARK  141  A    between atoms: _336  and  _337
REMARK  142  A    between atoms: _336  and  _339
REMARK  143  A    between atoms: _339  and  _340
REMARK  144  A    between atoms: _343  and  _345
REMARK  145  A    between atoms: _345  and  _346
REMARK  146  A    between atoms: _345  and  _348
REMARK  147  A    between atoms: _348  and  _349
REMARK  148  A    between atoms: _349  and  _350
REMARK  149  A    between atoms: _350  and  _351
REMARK  150  A    between atoms: _360  and  _362
REMARK  151  A    between atoms: _362  and  _363
REMARK  152  A    between atoms: _362  and  _365
REMARK  153  A    between atoms: _365  and  _366
REMARK  154  A    between atoms: _376  and  _378
REMARK  155  A    between atoms: _378  and  _379
REMARK  156  A    between atoms: _378  and  _381
REMARK  157  A    between atoms: _381  and  _382
REMARK  158  A    between atoms: _388  and  _390
REMARK  159  A    between atoms: _390  and  _391
REMARK  160  A    between atoms: _394  and  _396
REMARK  161  A    between atoms: _396  and  _397
REMARK  162  A    between atoms: _399  and  _401
REMARK  163  A    between atoms: _401  and  _402
REMARK  164  A    between atoms: _401  and  _404
REMARK  165  A    between atoms: _404  and  _405
REMARK  166  A    between atoms: _408  and  _410
REMARK  167  A    between atoms: _410  and  _411
REMARK  168  A    between atoms: _410  and  _413
REMARK  169  A    between atoms: _416  and  _418
REMARK  170  A    between atoms: _418  and  _419
REMARK  171  A    between atoms: _418  and  _421
REMARK  172  A    between atoms: _421  and  _422
REMARK  173  A    between atoms: _428  and  _430
REMARK  174  A    between atoms: _430  and  _431
REMARK  175  A    between atoms: _430  and  _433
REMARK  176  A    between atoms: _433  and  _434
REMARK  177  A    between atoms: _437  and  _439
REMARK  178  A    between atoms: _439  and  _440
REMARK  179  A    between atoms: _439  and  _442
REMARK  180  A    between atoms: _445  and  _447
REMARK  181  A    between atoms: _447  and  _448
REMARK  182  A    between atoms: _447  and  _450
REMARK  183  A    between atoms: _450  and  _451
REMARK  184  A    between atoms: _457  and  _458
REMARK  185  A    between atoms: _463  and  _465
REMARK  186  A    between atoms: _465  and  _466
REMARK  187  A    between atoms: _468  and  _470
REMARK  188  A    between atoms: _470  and  _471
REMARK  189  A    between atoms: _470  and  _473
REMARK  190  A    between atoms: _473  and  _474
REMARK  191  A    between atoms: _476  and  _478
REMARK  192  A    between atoms: _478  and  _479
REMARK  193  A    between atoms: _478  and  _481
REMARK  194  A    between atoms: _481  and  _482
REMARK  195  A    between atoms: _487  and  _489
REMARK  196  A    between atoms: _489  and  _490
REMARK  197  A    between atoms: _489  and  _492
REMARK  198  A    between atoms: _492  and  _493
REMARK  199  A    between atoms: _493  and  _494
REMARK  200  A    between atoms: _497  and  _499
REMARK  201  A    between atoms: _499  and  _500
REMARK  202  A    between atoms: _499  and  _502
REMARK  203  A    between atoms: _502  and  _503
REMARK  204  A    between atoms: _506  and  _508
REMARK  205  A    between atoms: _508  and  _509
REMARK  206  A    between atoms: _508  and  _511
REMARK  207  A    between atoms: _511  and  _512
REMARK  208  A    between atoms: _515  and  _517
REMARK  209  A    between atoms: _517  and  _518
REMARK  210  A    between atoms: _521  and  _523
REMARK  211  A    between atoms: _523  and  _524
REMARK  212  A    between atoms: _523  and  _526
REMARK  213  A    between atoms: _526  and  _527
REMARK  214  A    between atoms: _530  and  _532
REMARK  215  A    between atoms: _532  and  _533
REMARK  216  A    between atoms: _532  and  _535
REMARK  217  A    between atoms: _535  and  _536
REMARK  218  A    between atoms: _536  and  _537
REMARK  219  A    between atoms: _542  and  _544
REMARK  220  A    between atoms: _544  and  _545
REMARK  221  A    between atoms: _544  and  _547
REMARK  222  A    between atoms: _547  and  _548
REMARK  223  A    between atoms: _548  and  _549
REMARK  224  A    between atoms: _552  and  _554
REMARK  225  A    between atoms: _554  and  _555
REMARK  226  A    between atoms: _558  and  _560
REMARK  227  A    between atoms: _560  and  _561
REMARK  228  A    between atoms: _560  and  _563
REMARK  229  A    between atoms: _563  and  _564
REMARK  230  A    between atoms: _567  and  _569
REMARK  231  A    between atoms: _569  and  _570
REMARK  232  A    between atoms: _569  and  _572
REMARK  233  A    between atoms: _572  and  _573
REMARK  234  A    between atoms: _578  and  _580
REMARK  235  A    between atoms: _580  and  _581
REMARK  236  A    between atoms: _580  and  _583
REMARK  237  A    between atoms: _583  and  _584
REMARK  238  A    between atoms: _586  and  _588
REMARK  239  A    between atoms: _588  and  _589
REMARK  240  A    between atoms: _592  and  _594
REMARK  241  A    between atoms: _594  and  _595
REMARK  242  A    between atoms: _598  and  _600
REMARK  243  A    between atoms: _600  and  _601
REMARK  244  A    between atoms: _603  and  _605
REMARK  245  A    between atoms: _605  and  _606
REMARK  246  A    between atoms: _605  and  _608
REMARK  247  A    between atoms: _608  and  _609
REMARK  248  A    between atoms: _612  and  _614
REMARK  249  A    between atoms: _614  and  _615
REMARK  250  A    between atoms: _617  and  _619
REMARK  251  A    between atoms: _619  and  _620
REMARK  252  A    between atoms: _619  and  _622
REMARK  253  A    between atoms: _622  and  _623
REMARK  254  A    between atoms: _628  and  _630
REMARK  255  A    between atoms: _630  and  _631
REMARK  256  A    between atoms: _634  and  _636
REMARK  257  A    between atoms: _636  and  _637
REMARK  258  A    between atoms: _636  and  _639
REMARK  259  A    between atoms: _639  and  _640
REMARK  260  A    between atoms: _640  and  _641
REMARK  261  A    between atoms: _646  and  _648
REMARK  262  A    between atoms: _648  and  _649
REMARK  263  A    between atoms: _648  and  _651
REMARK  264  A    between atoms: _651  and  _652
REMARK  265  A    between atoms: _655  and  _657
REMARK  266  A    between atoms: _657  and  _658
REMARK  267  A    between atoms: _657  and  _660
REMARK  268  A    between atoms: _660  and  _661
REMARK                            x       y       z     vdW  Elec       q    Type
REMARK                         _______ _______ _______ _____ _____    ______ ____
ROOT
ATOM      1  O   HOH     1     111.669  39.496  90.960  0.00  0.00    +0.000 OA
ENDROOT
TORSDOF 0
REMARK  Name = ../refined-set-2016/3fzn/3fzn_pocket.pdb
REMARK  268 active torsions:
REMARK  status: ('A' for Active; 'I' for Inactive)
REMARK    1  A    between atoms: _1  and  _3
REMARK    2  A    between atoms: _3  and  _4
REMARK    3  A    between atoms: _6  and  _8
REMARK    4  A    between atoms: _8  and  _9
REMARK    5  A    between atoms: _8  and  _11
REMARK    6  A    between atoms: _11  and  _12
REMARK    7  A    between atoms: _17  and  _19
REMARK    8  A    between atoms: _19  and  _20
REMARK    9  A    between atoms: _19  and  _22
REMARK   10  A    between atoms: _22  and  _23
REMARK   11  A    between atoms: _25  and  _27
REMARK   12  A    between atoms: _27  and  _28
REMARK   13  A    between atoms: _27  and  _30
REMARK   14  A    between atoms: _30  and  _31
REMARK   15  A    between atoms: _36  and  _38
REMARK   16  A    between atoms: _38  and  _39
REMARK   17  A    between atoms: _38  and  _41
REMARK   18  A    between atoms: _41  and  _42
REMARK   19  A    between atoms: _42  and  _43
REMARK   20  A    between atoms: _49  and  _50
REMARK   21  A    between atoms: _55  and  _57
REMARK   22  A    between atoms: _57  and  _58
REMARK   23  A    between atoms: _57  and  _60
REMARK   24  A    between atoms: _60  and  _61
REMARK   25  A    between atoms: _66  and  _68
REMARK   26  A    between atoms: _68  and  _69
REMARK   27  A    between atoms: _68  and  _71
REMARK   28  A    between atoms: _71  and  _72
REMARK   29  A    between atoms: _72  and  _73
REMARK   30  A    between atoms: _76  and  _78
REMARK   31  A    between atoms: _78  and  _79
REMARK   32  A    between atoms: _78  and  _81
REMARK   33  A    between atoms: _81  and  _82
REMARK   34  A    between atoms: _84  and  _86
REMARK   35  A    between atoms: _86  and  _87
REMARK   36  A    between atoms: _86  and  _89
REMARK   37  A    between atoms: _89  and  _90
REMARK   38  A    between atoms: _93  and  _95
REMARK   39  A    between atoms: _95  and  _96
REMARK   40  A    between atoms: _95  and  _98
REMARK   41  A    between atoms: _98  and  _99
REMARK   42  A    between atoms: _101  and  _103
REMARK   43  A    between atoms: _103  and  _104
REMARK   44  A    between atoms: _103  and  _106
REMARK   45  A    between atoms: _106  and  _107
REMARK   46  A    between atoms: _110  and  _112
REMARK   47  A    between atoms: _112  and  _113
REMARK   48  A    between atoms: _112  and  _115
REMARK   49  A    between atoms: _115  and  _116
REMARK   50  A    between atoms: _119  and  _121
REMARK   51  A    between atoms: _121  and  _122
REMARK   52  A    between atoms: _121  and  _124
REMARK   53  A    between atoms: _124  and  _125
REMARK   54  A    between atoms: _131  and  _133
REMARK   55  A    between atoms: _133  and  _134
REMARK   56  A    between atoms: _133  and  _136
REMARK   57  A    between atoms: _138  and  _140
REMARK   58  A    between atoms: _140  and  _141
REMARK   59  A    between atoms: _144  and  _146
REMARK   60  A    between atoms: _146  and  _147
REMARK   61  A    between atoms: _149  and  _151
REMARK   62  A    between atoms: _151  and  _152
REMARK   63  A    between atoms: _154  and  _156
REMARK   64  A    between atoms: _156  and  _157
REMARK   65  A    between atoms: _156  and  _159
REMARK   66  A    between atoms: _159  and  _160
REMARK   67  A    between atoms: _163  and  _165
REMARK   68  A    between atoms: _165  and  _166
REMARK   69  A    between atoms: _168  and  _170
REMARK   70  A    between atoms: _170  and  _171
REMARK   71  A    between atoms: _170  and  _173
REMARK   72  A    between atoms: _173  and  _174
REMARK   73  A    between atoms: _180  and  _182
REMARK   74  A    between atoms: _182  and  _183
REMARK   75  A    between atoms: _182  and  _185
REMARK   76  A    between atoms: _188  and  _190
REMARK   77  A    between atoms: _190  and  _191
REMARK   78  A    between atoms: _190  and  _193
REMARK   79  A    between atoms: _193  and  _194
REMARK   80  A    between atoms: _197  and  _199
REMARK   81  A    between atoms: _199  and  _200
REMARK   82  A    between atoms: _202  and  _204
REMARK   83  A    between atoms: _204  and  _205
REMARK   84  A    between atoms: _204  and  _207
REMARK   85  A    between atoms: _207  and  _208
REMARK   86  A    between atoms: _208  and  _209
REMARK   87  A    between atoms: _209  and  MG_664
REMARK   88  A    between atoms: _211  and  _213
REMARK   89  A    between atoms: _213  and  _214
REMARK   90  A    between atoms: _216  and  _218
REMARK   91  A    between atoms: _218  and  _219
REMARK   92  A    between atoms: _218  and  _221
REMARK   93  A    between atoms: _221  and  _222
REMARK   94  A    between atoms: _224  and  _226
REMARK   95  A    between atoms: _226  and  _227
REMARK   96  A    between atoms: _230  and  _232
REMARK   97  A    between atoms: _232  and  _233
REMARK   98  A    between atoms: _232  and  _235
REMARK   99  A    between atoms: _235  and  _236
REMARK  100  A    between atoms: _241  and  _243
REMARK  101  A    between atoms: _243  and  _244
REMARK  102  A    between atoms: _243  and  _246
REMARK  103  A    between atoms: _246  and  _247
REMARK  104  A    between atoms: _252  and  _253
REMARK  105  A    between atoms: _255  and  _257
REMARK  106  A    between atoms: _257  and  _258
REMARK  107  A    between atoms: _257  and  _260
REMARK  108  A    between atoms: _260  and  _261
REMARK  109  A    between atoms: _264  and  _266
REMARK  110  A    between atoms: _266  and  _267
REMARK  111  A    between atoms: _266  and  _269
REMARK  112  A    between atoms: _269  and  _270
REMARK  113  A    between atoms: _270  and  _271
REMARK  114  A    between atoms: _273  and  _275
REMARK  115  A    between atoms: _275  and  _276
REMARK  116  A    between atoms: _275  and  _278
REMARK  117  A    between atoms: _278  and  _279
REMARK  118  A    between atoms: _284  and  _286
REMARK  119  A    between atoms: _286  and  _287
REMARK  120  A    between atoms: _286  and  _289
REMARK  121  A    between atoms: _289  and  _290
REMARK  122  A    between atoms: _290  and  _291
REMARK  123  A    between atoms: _290  and  _292
REMARK  124  A    between atoms: _291  and  MG_664
REMARK  125  A    between atoms: _295  and  _297
REMARK  126  A    between atoms: _297  and  _298
REMARK  127  A    between atoms: _300  and  _302
REMARK  128  A    between atoms: _302  and  _303
REMARK  129  A    between atoms: _302  and  _305
REMARK  130  A    between atoms: _305  and  _306
REMARK  131  A    between atoms: _309  and  _311
REMARK  132  A    between atoms: _311  and  _312
REMARK  133  A    between atoms: _311  and  _314
REMARK  134  A    between atoms: _314  and  _315
REMARK  135  A    between atoms: _320  and  _321
REMARK  136  A    between atoms: _323  and  _325
REMARK  137  A    between atoms: _325  and  _326
REMARK  138  A    between atoms: _328  and  _330
REMARK  139  A    between atoms: _330  and  _331
REMARK  140  A    between atoms: _334  and  _336
REMARK  141  A    between atoms: _336  and  _337
REMARK  142  A    between atoms: _336  and  _339
REMARK  143  A    between atoms: _339  and  _340
REMARK  144  A    between atoms: _343  and  _345
REMARK  145  A    between atoms: _345  and  _346
REMARK  146  A    between atoms: _345  and  _348
REMARK  147  A    between atoms: _348  and  _349
REMARK  148  A    between atoms: _349  and  _350
REMARK  149  A    between atoms: _350  and  _351
REMARK  150  A    between atoms: _360  and  _362
REMARK  151  A    between atoms: _362  and  _363
REMARK  152  A    between atoms: _362  and  _365
REMARK  153  A    between atoms: _365  and  _366
REMARK  154  A    between atoms: _376  and  _378
REMARK  155  A    between atoms: _378  and  _379
REMARK  156  A    between atoms: _378  and  _381
REMARK  157  A    between atoms: _381  and  _382
REMARK  158  A    between atoms: _388  and  _390
REMARK  159  A    between atoms: _390  and  _391
REMARK  160  A    between atoms: _394  and  _396
REMARK  161  A    between atoms: _396  and  _397
REMARK  162  A    between atoms: _399  and  _401
REMARK  163  A    between atoms: _401  and  _402
REMARK  164  A    between atoms: _401  and  _404
REMARK  165  A    between atoms: _404  and  _405
REMARK  166  A    between atoms: _408  and  _410
REMARK  167  A    between atoms: _410  and  _411
REMARK  168  A    between atoms: _410  and  _413
REMARK  169  A    between atoms: _416  and  _418
REMARK  170  A    between atoms: _418  and  _419
REMARK  171  A    between atoms: _418  and  _421
REMARK  172  A    between atoms: _421  and  _422
REMARK  173  A    between atoms: _428  and  _430
REMARK  174  A    between atoms: _430  and  _431
REMARK  175  A    between atoms: _430  and  _433
REMARK  176  A    between atoms: _433  and  _434
REMARK  177  A    between atoms: _437  and  _439
REMARK  178  A    between atoms: _439  and  _440
REMARK  179  A    between atoms: _439  and  _442
REMARK  180  A    between atoms: _445  and  _447
REMARK  181  A    between atoms: _447  and  _448
REMARK  182  A    between atoms: _447  and  _450
REMARK  183  A    between atoms: _450  and  _451
REMARK  184  A    between atoms: _457  and  _458
REMARK  185  A    between atoms: _463  and  _465
REMARK  186  A    between atoms: _465  and  _466
REMARK  187  A    between atoms: _468  and  _470
REMARK  188  A    between atoms: _470  and  _471
REMARK  189  A    between atoms: _470  and  _473
REMARK  190  A    between atoms: _473  and  _474
REMARK  191  A    between atoms: _476  and  _478
REMARK  192  A    between atoms: _478  and  _479
REMARK  193  A    between atoms: _478  and  _481
REMARK  194  A    between atoms: _481  and  _482
REMARK  195  A    between atoms: _487  and  _489
REMARK  196  A    between atoms: _489  and  _490
REMARK  197  A    between atoms: _489  and  _492
REMARK  198  A    between atoms: _492  and  _493
REMARK  199  A    between atoms: _493  and  _494
REMARK  200  A    between atoms: _497  and  _499
REMARK  201  A    between atoms: _499  and  _500
REMARK  202  A    between atoms: _499  and  _502
REMARK  203  A    between atoms: _502  and  _503
REMARK  204  A    between atoms: _506  and  _508
REMARK  205  A    between atoms: _508  and  _509
REMARK  206  A    between atoms: _508  and  _511
REMARK  207  A    between atoms: _511  and  _512
REMARK  208  A    between atoms: _515  and  _517
REMARK  209  A    between atoms: _517  and  _518
REMARK  210  A    between atoms: _521  and  _523
REMARK  211  A    between atoms: _523  and  _524
REMARK  212  A    between atoms: _523  and  _526
REMARK  213  A    between atoms: _526  and  _527
REMARK  214  A    between atoms: _530  and  _532
REMARK  215  A    between atoms: _532  and  _533
REMARK  216  A    between atoms: _532  and  _535
REMARK  217  A    between atoms: _535  and  _536
REMARK  218  A    between atoms: _536  and  _537
REMARK  219  A    between atoms: _542  and  _544
REMARK  220  A    between atoms: _544  and  _545
REMARK  221  A    between atoms: _544  and  _547
REMARK  222  A    between atoms: _547  and  _548
REMARK  223  A    between atoms: _548  and  _549
REMARK  224  A    between atoms: _552  and  _554
REMARK  225  A    between atoms: _554  and  _555
REMARK  226  A    between atoms: _558  and  _560
REMARK  227  A    between atoms: _560  and  _561
REMARK  228  A    between atoms: _560  and  _563
REMARK  229  A    between atoms: _563  and  _564
REMARK  230  A    between atoms: _567  and  _569
REMARK  231  A    between atoms: _569  and  _570
REMARK  232  A    between atoms: _569  and  _572
REMARK  233  A    between atoms: _572  and  _573
REMARK  234  A    between atoms: _578  and  _580
REMARK  235  A    between atoms: _580  and  _581
REMARK  236  A    between atoms: _580  and  _583
REMARK  237  A    between atoms: _583  and  _584
REMARK  238  A    between atoms: _586  and  _588
REMARK  239  A    between atoms: _588  and  _589
REMARK  240  A    between atoms: _592  and  _594
REMARK  241  A    between atoms: _594  and  _595
REMARK  242  A    between atoms: _598  and  _600
REMARK  243  A    between atoms: _600  and  _601
REMARK  244  A    between atoms: _603  and  _605
REMARK  245  A    between atoms: _605  and  _606
REMARK  246  A    between atoms: _605  and  _608
REMARK  247  A    between atoms: _608  and  _609
REMARK  248  A    between atoms: _612  and  _614
REMARK  249  A    between atoms: _614  and  _615
REMARK  250  A    between atoms: _617  and  _619
REMARK  251  A    between atoms: _619  and  _620
REMARK  252  A    between atoms: _619  and  _622
REMARK  253  A    between atoms: _622  and  _623
REMARK  254  A    between atoms: _628  and  _630
REMARK  255  A    between atoms: _630  and  _631
REMARK  256  A    between atoms: _634  and  _636
REMARK  257  A    between atoms: _636  and  _637
REMARK  258  A    between atoms: _636  and  _639
REMARK  259  A    between atoms: _639  and  _640
REMARK  260  A    between atoms: _640  and  _641
REMARK  261  A    between atoms: _646  and  _648
REMARK  262  A    between atoms: _648  and  _649
REMARK  263  A    between atoms: _648  and  _651
REMARK  264  A    between atoms: _651  and  _652
REMARK  265  A    between atoms: _655  and  _657
REMARK  266  A    between atoms: _657  and  _658
REMARK  267  A    between atoms: _657  and  _660
REMARK  268  A    between atoms: _660  and  _661
REMARK                            x       y       z     vdW  Elec       q    Type
REMARK                         _______ _______ _______ _____ _____    ______ ____
ROOT
ATOM      1  O   HOH     1     115.990  40.222 101.331  0.00  0.00    +0.000 OA
ENDROOT
TORSDOF 0
REMARK  Name = ../refined-set-2016/3fzn/3fzn_pocket.pdb
REMARK  268 active torsions:
REMARK  status: ('A' for Active; 'I' for Inactive)
REMARK    1  A    between atoms: _1  and  _3
REMARK    2  A    between atoms: _3  and  _4
REMARK    3  A    between atoms: _6  and  _8
REMARK    4  A    between atoms: _8  and  _9
REMARK    5  A    between atoms: _8  and  _11
REMARK    6  A    between atoms: _11  and  _12
REMARK    7  A    between atoms: _17  and  _19
REMARK    8  A    between atoms: _19  and  _20
REMARK    9  A    between atoms: _19  and  _22
REMARK   10  A    between atoms: _22  and  _23
REMARK   11  A    between atoms: _25  and  _27
REMARK   12  A    between atoms: _27  and  _28
REMARK   13  A    between atoms: _27  and  _30
REMARK   14  A    between atoms: _30  and  _31
REMARK   15  A    between atoms: _36  and  _38
REMARK   16  A    between atoms: _38  and  _39
REMARK   17  A    between atoms: _38  and  _41
REMARK   18  A    between atoms: _41  and  _42
REMARK   19  A    between atoms: _42  and  _43
REMARK   20  A    between atoms: _49  and  _50
REMARK   21  A    between atoms: _55  and  _57
REMARK   22  A    between atoms: _57  and  _58
REMARK   23  A    between atoms: _57  and  _60
REMARK   24  A    between atoms: _60  and  _61
REMARK   25  A    between atoms: _66  and  _68
REMARK   26  A    between atoms: _68  and  _69
REMARK   27  A    between atoms: _68  and  _71
REMARK   28  A    between atoms: _71  and  _72
REMARK   29  A    between atoms: _72  and  _73
REMARK   30  A    between atoms: _76  and  _78
REMARK   31  A    between atoms: _78  and  _79
REMARK   32  A    between atoms: _78  and  _81
REMARK   33  A    between atoms: _81  and  _82
REMARK   34  A    between atoms: _84  and  _86
REMARK   35  A    between atoms: _86  and  _87
REMARK   36  A    between atoms: _86  and  _89
REMARK   37  A    between atoms: _89  and  _90
REMARK   38  A    between atoms: _93  and  _95
REMARK   39  A    between atoms: _95  and  _96
REMARK   40  A    between atoms: _95  and  _98
REMARK   41  A    between atoms: _98  and  _99
REMARK   42  A    between atoms: _101  and  _103
REMARK   43  A    between atoms: _103  and  _104
REMARK   44  A    between atoms: _103  and  _106
REMARK   45  A    between atoms: _106  and  _107
REMARK   46  A    between atoms: _110  and  _112
REMARK   47  A    between atoms: _112  and  _113
REMARK   48  A    between atoms: _112  and  _115
REMARK   49  A    between atoms: _115  and  _116
REMARK   50  A    between atoms: _119  and  _121
REMARK   51  A    between atoms: _121  and  _122
REMARK   52  A    between atoms: _121  and  _124
REMARK   53  A    between atoms: _124  and  _125
REMARK   54  A    between atoms: _131  and  _133
REMARK   55  A    between atoms: _133  and  _134
REMARK   56  A    between atoms: _133  and  _136
REMARK   57  A    between atoms: _138  and  _140
REMARK   58  A    between atoms: _140  and  _141
REMARK   59  A    between atoms: _144  and  _146
REMARK   60  A    between atoms: _146  and  _147
REMARK   61  A    between atoms: _149  and  _151
REMARK   62  A    between atoms: _151  and  _152
REMARK   63  A    between atoms: _154  and  _156
REMARK   64  A    between atoms: _156  and  _157
REMARK   65  A    between atoms: _156  and  _159
REMARK   66  A    between atoms: _159  and  _160
REMARK   67  A    between atoms: _163  and  _165
REMARK   68  A    between atoms: _165  and  _166
REMARK   69  A    between atoms: _168  and  _170
REMARK   70  A    between atoms: _170  and  _171
REMARK   71  A    between atoms: _170  and  _173
REMARK   72  A    between atoms: _173  and  _174
REMARK   73  A    between atoms: _180  and  _182
REMARK   74  A    between atoms: _182  and  _183
REMARK   75  A    between atoms: _182  and  _185
REMARK   76  A    between atoms: _188  and  _190
REMARK   77  A    between atoms: _190  and  _191
REMARK   78  A    between atoms: _190  and  _193
REMARK   79  A    between atoms: _193  and  _194
REMARK   80  A    between atoms: _197  and  _199
REMARK   81  A    between atoms: _199  and  _200
REMARK   82  A    between atoms: _202  and  _204
REMARK   83  A    between atoms: _204  and  _205
REMARK   84  A    between atoms: _204  and  _207
REMARK   85  A    between atoms: _207  and  _208
REMARK   86  A    between atoms: _208  and  _209
REMARK   87  A    between atoms: _209  and  MG_664
REMARK   88  A    between atoms: _211  and  _213
REMARK   89  A    between atoms: _213  and  _214
REMARK   90  A    between atoms: _216  and  _218
REMARK   91  A    between atoms: _218  and  _219
REMARK   92  A    between atoms: _218  and  _221
REMARK   93  A    between atoms: _221  and  _222
REMARK   94  A    between atoms: _224  and  _226
REMARK   95  A    between atoms: _226  and  _227
REMARK   96  A    between atoms: _230  and  _232
REMARK   97  A    between atoms: _232  and  _233
REMARK   98  A    between atoms: _232  and  _235
REMARK   99  A    between atoms: _235  and  _236
REMARK  100  A    between atoms: _241  and  _243
REMARK  101  A    between atoms: _243  and  _244
REMARK  102  A    between atoms: _243  and  _246
REMARK  103  A    between atoms: _246  and  _247
REMARK  104  A    between atoms: _252  and  _253
REMARK  105  A    between atoms: _255  and  _257
REMARK  106  A    between atoms: _257  and  _258
REMARK  107  A    between atoms: _257  and  _260
REMARK  108  A    between atoms: _260  and  _261
REMARK  109  A    between atoms: _264  and  _266
REMARK  110  A    between atoms: _266  and  _267
REMARK  111  A    between atoms: _266  and  _269
REMARK  112  A    between atoms: _269  and  _270
REMARK  113  A    between atoms: _270  and  _271
REMARK  114  A    between atoms: _273  and  _275
REMARK  115  A    between atoms: _275  and  _276
REMARK  116  A    between atoms: _275  and  _278
REMARK  117  A    between atoms: _278  and  _279
REMARK  118  A    between atoms: _284  and  _286
REMARK  119  A    between atoms: _286  and  _287
REMARK  120  A    between atoms: _286  and  _289
REMARK  121  A    between atoms: _289  and  _290
REMARK  122  A    between atoms: _290  and  _291
REMARK  123  A    between atoms: _290  and  _292
REMARK  124  A    between atoms: _291  and  MG_664
REMARK  125  A    between atoms: _295  and  _297
REMARK  126  A    between atoms: _297  and  _298
REMARK  127  A    between atoms: _300  and  _302
REMARK  128  A    between atoms: _302  and  _303
REMARK  129  A    between atoms: _302  and  _305
REMARK  130  A    between atoms: _305  and  _306
REMARK  131  A    between atoms: _309  and  _311
REMARK  132  A    between atoms: _311  and  _312
REMARK  133  A    between atoms: _311  and  _314
REMARK  134  A    between atoms: _314  and  _315
REMARK  135  A    between atoms: _320  and  _321
REMARK  136  A    between atoms: _323  and  _325
REMARK  137  A    between atoms: _325  and  _326
REMARK  138  A    between atoms: _328  and  _330
REMARK  139  A    between atoms: _330  and  _331
REMARK  140  A    between atoms: _334  and  _336
REMARK  141  A    between atoms: _336  and  _337
REMARK  142  A    between atoms: _336  and  _339
REMARK  143  A    between atoms: _339  and  _340
REMARK  144  A    between atoms: _343  and  _345
REMARK  145  A    between atoms: _345  and  _346
REMARK  146  A    between atoms: _345  and  _348
REMARK  147  A    between atoms: _348  and  _349
REMARK  148  A    between atoms: _349  and  _350
REMARK  149  A    between atoms: _350  and  _351
REMARK  150  A    between atoms: _360  and  _362
REMARK  151  A    between atoms: _362  and  _363
REMARK  152  A    between atoms: _362  and  _365
REMARK  153  A    between atoms: _365  and  _366
REMARK  154  A    between atoms: _376  and  _378
REMARK  155  A    between atoms: _378  and  _379
REMARK  156  A    between atoms: _378  and  _381
REMARK  157  A    between atoms: _381  and  _382
REMARK  158  A    between atoms: _388  and  _390
REMARK  159  A    between atoms: _390  and  _391
REMARK  160  A    between atoms: _394  and  _396
REMARK  161  A    between atoms: _396  and  _397
REMARK  162  A    between atoms: _399  and  _401
REMARK  163  A    between atoms: _401  and  _402
REMARK  164  A    between atoms: _401  and  _404
REMARK  165  A    between atoms: _404  and  _405
REMARK  166  A    between atoms: _408  and  _410
REMARK  167  A    between atoms: _410  and  _411
REMARK  168  A    between atoms: _410  and  _413
REMARK  169  A    between atoms: _416  and  _418
REMARK  170  A    between atoms: _418  and  _419
REMARK  171  A    between atoms: _418  and  _421
REMARK  172  A    between atoms: _421  and  _422
REMARK  173  A    between atoms: _428  and  _430
REMARK  174  A    between atoms: _430  and  _431
REMARK  175  A    between atoms: _430  and  _433
REMARK  176  A    between atoms: _433  and  _434
REMARK  177  A    between atoms: _437  and  _439
REMARK  178  A    between atoms: _439  and  _440
REMARK  179  A    between atoms: _439  and  _442
REMARK  180  A    between atoms: _445  and  _447
REMARK  181  A    between atoms: _447  and  _448
REMARK  182  A    between atoms: _447  and  _450
REMARK  183  A    between atoms: _450  and  _451
REMARK  184  A    between atoms: _457  and  _458
REMARK  185  A    between atoms: _463  and  _465
REMARK  186  A    between atoms: _465  and  _466
REMARK  187  A    between atoms: _468  and  _470
REMARK  188  A    between atoms: _470  and  _471
REMARK  189  A    between atoms: _470  and  _473
REMARK  190  A    between atoms: _473  and  _474
REMARK  191  A    between atoms: _476  and  _478
REMARK  192  A    between atoms: _478  and  _479
REMARK  193  A    between atoms: _478  and  _481
REMARK  194  A    between atoms: _481  and  _482
REMARK  195  A    between atoms: _487  and  _489
REMARK  196  A    between atoms: _489  and  _490
REMARK  197  A    between atoms: _489  and  _492
REMARK  198  A    between atoms: _492  and  _493
REMARK  199  A    between atoms: _493  and  _494
REMARK  200  A    between atoms: _497  and  _499
REMARK  201  A    between atoms: _499  and  _500
REMARK  202  A    between atoms: _499  and  _502
REMARK  203  A    between atoms: _502  and  _503
REMARK  204  A    between atoms: _506  and  _508
REMARK  205  A    between atoms: _508  and  _509
REMARK  206  A    between atoms: _508  and  _511
REMARK  207  A    between atoms: _511  and  _512
REMARK  208  A    between atoms: _515  and  _517
REMARK  209  A    between atoms: _517  and  _518
REMARK  210  A    between atoms: _521  and  _523
REMARK  211  A    between atoms: _523  and  _524
REMARK  212  A    between atoms: _523  and  _526
REMARK  213  A    between atoms: _526  and  _527
REMARK  214  A    between atoms: _530  and  _532
REMARK  215  A    between atoms: _532  and  _533
REMARK  216  A    between atoms: _532  and  _535
REMARK  217  A    between atoms: _535  and  _536
REMARK  218  A    between atoms: _536  and  _537
REMARK  219  A    between atoms: _542  and  _544
REMARK  220  A    between atoms: _544  and  _545
REMARK  221  A    between atoms: _544  and  _547
REMARK  222  A    between atoms: _547  and  _548
REMARK  223  A    between atoms: _548  and  _549
REMARK  224  A    between atoms: _552  and  _554
REMARK  225  A    between atoms: _554  and  _555
REMARK  226  A    between atoms: _558  and  _560
REMARK  227  A    between atoms: _560  and  _561
REMARK  228  A    between atoms: _560  and  _563
REMARK  229  A    between atoms: _563  and  _564
REMARK  230  A    between atoms: _567  and  _569
REMARK  231  A    between atoms: _569  and  _570
REMARK  232  A    between atoms: _569  and  _572
REMARK  233  A    between atoms: _572  and  _573
REMARK  234  A    between atoms: _578  and  _580
REMARK  235  A    between atoms: _580  and  _581
REMARK  236  A    between atoms: _580  and  _583
REMARK  237  A    between atoms: _583  and  _584
REMARK  238  A    between atoms: _586  and  _588
REMARK  239  A    between atoms: _588  and  _589
REMARK  240  A    between atoms: _592  and  _594
REMARK  241  A    between atoms: _594  and  _595
REMARK  242  A    between atoms: _598  and  _600
REMARK  243  A    between atoms: _600  and  _601
REMARK  244  A    between atoms: _603  and  _605
REMARK  245  A    between atoms: _605  and  _606
REMARK  246  A    between atoms: _605  and  _608
REMARK  247  A    between atoms: _608  and  _609
REMARK  248  A    between atoms: _612  and  _614
REMARK  249  A    between atoms: _614  and  _615
REMARK  250  A    between atoms: _617  and  _619
REMARK  251  A    between atoms: _619  and  _620
REMARK  252  A    between atoms: _619  and  _622
REMARK  253  A    between atoms: _622  and  _623
REMARK  254  A    between atoms: _628  and  _630
REMARK  255  A    between atoms: _630  and  _631
REMARK  256  A    between atoms: _634  and  _636
REMARK  257  A    between atoms: _636  and  _637
REMARK  258  A    between atoms: _636  and  _639
REMARK  259  A    between atoms: _639  and  _640
REMARK  260  A    between atoms: _640  and  _641
REMARK  261  A    between atoms: _646  and  _648
REMARK  262  A    between atoms: _648  and  _649
REMARK  263  A    between atoms: _648  and  _651
REMARK  264  A    between atoms: _651  and  _652
REMARK  265  A    between atoms: _655  and  _657
REMARK  266  A    between atoms: _657  and  _658
REMARK  267  A    between atoms: _657  and  _660
REMARK  268  A    between atoms: _660  and  _661
REMARK                            x       y       z     vdW  Elec       q    Type
REMARK                         _______ _______ _______ _____ _____    ______ ____
ROOT
ATOM      1  O   HOH     1     110.663  37.001  99.773  0.00  0.00    +0.000 OA
ENDROOT
TORSDOF 0
REMARK  Name = ../refined-set-2016/3fzn/3fzn_pocket.pdb
REMARK  268 active torsions:
REMARK  status: ('A' for Active; 'I' for Inactive)
REMARK    1  A    between atoms: _1  and  _3
REMARK    2  A    between atoms: _3  and  _4
REMARK    3  A    between atoms: _6  and  _8
REMARK    4  A    between atoms: _8  and  _9
REMARK    5  A    between atoms: _8  and  _11
REMARK    6  A    between atoms: _11  and  _12
REMARK    7  A    between atoms: _17  and  _19
REMARK    8  A    between atoms: _19  and  _20
REMARK    9  A    between atoms: _19  and  _22
REMARK   10  A    between atoms: _22  and  _23
REMARK   11  A    between atoms: _25  and  _27
REMARK   12  A    between atoms: _27  and  _28
REMARK   13  A    between atoms: _27  and  _30
REMARK   14  A    between atoms: _30  and  _31
REMARK   15  A    between atoms: _36  and  _38
REMARK   16  A    between atoms: _38  and  _39
REMARK   17  A    between atoms: _38  and  _41
REMARK   18  A    between atoms: _41  and  _42
REMARK   19  A    between atoms: _42  and  _43
REMARK   20  A    between atoms: _49  and  _50
REMARK   21  A    between atoms: _55  and  _57
REMARK   22  A    between atoms: _57  and  _58
REMARK   23  A    between atoms: _57  and  _60
REMARK   24  A    between atoms: _60  and  _61
REMARK   25  A    between atoms: _66  and  _68
REMARK   26  A    between atoms: _68  and  _69
REMARK   27  A    between atoms: _68  and  _71
REMARK   28  A    between atoms: _71  and  _72
REMARK   29  A    between atoms: _72  and  _73
REMARK   30  A    between atoms: _76  and  _78
REMARK   31  A    between atoms: _78  and  _79
REMARK   32  A    between atoms: _78  and  _81
REMARK   33  A    between atoms: _81  and  _82
REMARK   34  A    between atoms: _84  and  _86
REMARK   35  A    between atoms: _86  and  _87
REMARK   36  A    between atoms: _86  and  _89
REMARK   37  A    between atoms: _89  and  _90
REMARK   38  A    between atoms: _93  and  _95
REMARK   39  A    between atoms: _95  and  _96
REMARK   40  A    between atoms: _95  and  _98
REMARK   41  A    between atoms: _98  and  _99
REMARK   42  A    between atoms: _101  and  _103
REMARK   43  A    between atoms: _103  and  _104
REMARK   44  A    between atoms: _103  and  _106
REMARK   45  A    between atoms: _106  and  _107
REMARK   46  A    between atoms: _110  and  _112
REMARK   47  A    between atoms: _112  and  _113
REMARK   48  A    between atoms: _112  and  _115
REMARK   49  A    between atoms: _115  and  _116
REMARK   50  A    between atoms: _119  and  _121
REMARK   51  A    between atoms: _121  and  _122
REMARK   52  A    between atoms: _121  and  _124
REMARK   53  A    between atoms: _124  and  _125
REMARK   54  A    between atoms: _131  and  _133
REMARK   55  A    between atoms: _133  and  _134
REMARK   56  A    between atoms: _133  and  _136
REMARK   57  A    between atoms: _138  and  _140
REMARK   58  A    between atoms: _140  and  _141
REMARK   59  A    between atoms: _144  and  _146
REMARK   60  A    between atoms: _146  and  _147
REMARK   61  A    between atoms: _149  and  _151
REMARK   62  A    between atoms: _151  and  _152
REMARK   63  A    between atoms: _154  and  _156
REMARK   64  A    between atoms: _156  and  _157
REMARK   65  A    between atoms: _156  and  _159
REMARK   66  A    between atoms: _159  and  _160
REMARK   67  A    between atoms: _163  and  _165
REMARK   68  A    between atoms: _165  and  _166
REMARK   69  A    between atoms: _168  and  _170
REMARK   70  A    between atoms: _170  and  _171
REMARK   71  A    between atoms: _170  and  _173
REMARK   72  A    between atoms: _173  and  _174
REMARK   73  A    between atoms: _180  and  _182
REMARK   74  A    between atoms: _182  and  _183
REMARK   75  A    between atoms: _182  and  _185
REMARK   76  A    between atoms: _188  and  _190
REMARK   77  A    between atoms: _190  and  _191
REMARK   78  A    between atoms: _190  and  _193
REMARK   79  A    between atoms: _193  and  _194
REMARK   80  A    between atoms: _197  and  _199
REMARK   81  A    between atoms: _199  and  _200
REMARK   82  A    between atoms: _202  and  _204
REMARK   83  A    between atoms: _204  and  _205
REMARK   84  A    between atoms: _204  and  _207
REMARK   85  A    between atoms: _207  and  _208
REMARK   86  A    between atoms: _208  and  _209
REMARK   87  A    between atoms: _209  and  MG_664
REMARK   88  A    between atoms: _211  and  _213
REMARK   89  A    between atoms: _213  and  _214
REMARK   90  A    between atoms: _216  and  _218
REMARK   91  A    between atoms: _218  and  _219
REMARK   92  A    between atoms: _218  and  _221
REMARK   93  A    between atoms: _221  and  _222
REMARK   94  A    between atoms: _224  and  _226
REMARK   95  A    between atoms: _226  and  _227
REMARK   96  A    between atoms: _230  and  _232
REMARK   97  A    between atoms: _232  and  _233
REMARK   98  A    between atoms: _232  and  _235
REMARK   99  A    between atoms: _235  and  _236
REMARK  100  A    between atoms: _241  and  _243
REMARK  101  A    between atoms: _243  and  _244
REMARK  102  A    between atoms: _243  and  _246
REMARK  103  A    between atoms: _246  and  _247
REMARK  104  A    between atoms: _252  and  _253
REMARK  105  A    between atoms: _255  and  _257
REMARK  106  A    between atoms: _257  and  _258
REMARK  107  A    between atoms: _257  and  _260
REMARK  108  A    between atoms: _260  and  _261
REMARK  109  A    between atoms: _264  and  _266
REMARK  110  A    between atoms: _266  and  _267
REMARK  111  A    between atoms: _266  and  _269
REMARK  112  A    between atoms: _269  and  _270
REMARK  113  A    between atoms: _270  and  _271
REMARK  114  A    between atoms: _273  and  _275
REMARK  115  A    between atoms: _275  and  _276
REMARK  116  A    between atoms: _275  and  _278
REMARK  117  A    between atoms: _278  and  _279
REMARK  118  A    between atoms: _284  and  _286
REMARK  119  A    between atoms: _286  and  _287
REMARK  120  A    between atoms: _286  and  _289
REMARK  121  A    between atoms: _289  and  _290
REMARK  122  A    between atoms: _290  and  _291
REMARK  123  A    between atoms: _290  and  _292
REMARK  124  A    between atoms: _291  and  MG_664
REMARK  125  A    between atoms: _295  and  _297
REMARK  126  A    between atoms: _297  and  _298
REMARK  127  A    between atoms: _300  and  _302
REMARK  128  A    between atoms: _302  and  _303
REMARK  129  A    between atoms: _302  and  _305
REMARK  130  A    between atoms: _305  and  _306
REMARK  131  A    between atoms: _309  and  _311
REMARK  132  A    between atoms: _311  and  _312
REMARK  133  A    between atoms: _311  and  _314
REMARK  134  A    between atoms: _314  and  _315
REMARK  135  A    between atoms: _320  and  _321
REMARK  136  A    between atoms: _323  and  _325
REMARK  137  A    between atoms: _325  and  _326
REMARK  138  A    between atoms: _328  and  _330
REMARK  139  A    between atoms: _330  and  _331
REMARK  140  A    between atoms: _334  and  _336
REMARK  141  A    between atoms: _336  and  _337
REMARK  142  A    between atoms: _336  and  _339
REMARK  143  A    between atoms: _339  and  _340
REMARK  144  A    between atoms: _343  and  _345
REMARK  145  A    between atoms: _345  and  _346
REMARK  146  A    between atoms: _345  and  _348
REMARK  147  A    between atoms: _348  and  _349
REMARK  148  A    between atoms: _349  and  _350
REMARK  149  A    between atoms: _350  and  _351
REMARK  150  A    between atoms: _360  and  _362
REMARK  151  A    between atoms: _362  and  _363
REMARK  152  A    between atoms: _362  and  _365
REMARK  153  A    between atoms: _365  and  _366
REMARK  154  A    between atoms: _376  and  _378
REMARK  155  A    between atoms: _378  and  _379
REMARK  156  A    between atoms: _378  and  _381
REMARK  157  A    between atoms: _381  and  _382
REMARK  158  A    between atoms: _388  and  _390
REMARK  159  A    between atoms: _390  and  _391
REMARK  160  A    between atoms: _394  and  _396
REMARK  161  A    between atoms: _396  and  _397
REMARK  162  A    between atoms: _399  and  _401
REMARK  163  A    between atoms: _401  and  _402
REMARK  164  A    between atoms: _401  and  _404
REMARK  165  A    between atoms: _404  and  _405
REMARK  166  A    between atoms: _408  and  _410
REMARK  167  A    between atoms: _410  and  _411
REMARK  168  A    between atoms: _410  and  _413
REMARK  169  A    between atoms: _416  and  _418
REMARK  170  A    between atoms: _418  and  _419
REMARK  171  A    between atoms: _418  and  _421
REMARK  172  A    between atoms: _421  and  _422
REMARK  173  A    between atoms: _428  and  _430
REMARK  174  A    between atoms: _430  and  _431
REMARK  175  A    between atoms: _430  and  _433
REMARK  176  A    between atoms: _433  and  _434
REMARK  177  A    between atoms: _437  and  _439
REMARK  178  A    between atoms: _439  and  _440
REMARK  179  A    between atoms: _439  and  _442
REMARK  180  A    between atoms: _445  and  _447
REMARK  181  A    between atoms: _447  and  _448
REMARK  182  A    between atoms: _447  and  _450
REMARK  183  A    between atoms: _450  and  _451
REMARK  184  A    between atoms: _457  and  _458
REMARK  185  A    between atoms: _463  and  _465
REMARK  186  A    between atoms: _465  and  _466
REMARK  187  A    between atoms: _468  and  _470
REMARK  188  A    between atoms: _470  and  _471
REMARK  189  A    between atoms: _470  and  _473
REMARK  190  A    between atoms: _473  and  _474
REMARK  191  A    between atoms: _476  and  _478
REMARK  192  A    between atoms: _478  and  _479
REMARK  193  A    between atoms: _478  and  _481
REMARK  194  A    between atoms: _481  and  _482
REMARK  195  A    between atoms: _487  and  _489
REMARK  196  A    between atoms: _489  and  _490
REMARK  197  A    between atoms: _489  and  _492
REMARK  198  A    between atoms: _492  and  _493
REMARK  199  A    between atoms: _493  and  _494
REMARK  200  A    between atoms: _497  and  _499
REMARK  201  A    between atoms: _499  and  _500
REMARK  202  A    between atoms: _499  and  _502
REMARK  203  A    between atoms: _502  and  _503
REMARK  204  A    between atoms: _506  and  _508
REMARK  205  A    between atoms: _508  and  _509
REMARK  206  A    between atoms: _508  and  _511
REMARK  207  A    between atoms: _511  and  _512
REMARK  208  A    between atoms: _515  and  _517
REMARK  209  A    between atoms: _517  and  _518
REMARK  210  A    between atoms: _521  and  _523
REMARK  211  A    between atoms: _523  and  _524
REMARK  212  A    between atoms: _523  and  _526
REMARK  213  A    between atoms: _526  and  _527
REMARK  214  A    between atoms: _530  and  _532
REMARK  215  A    between atoms: _532  and  _533
REMARK  216  A    between atoms: _532  and  _535
REMARK  217  A    between atoms: _535  and  _536
REMARK  218  A    between atoms: _536  and  _537
REMARK  219  A    between atoms: _542  and  _544
REMARK  220  A    between atoms: _544  and  _545
REMARK  221  A    between atoms: _544  and  _547
REMARK  222  A    between atoms: _547  and  _548
REMARK  223  A    between atoms: _548  and  _549
REMARK  224  A    between atoms: _552  and  _554
REMARK  225  A    between atoms: _554  and  _555
REMARK  226  A    between atoms: _558  and  _560
REMARK  227  A    between atoms: _560  and  _561
REMARK  228  A    between atoms: _560  and  _563
REMARK  229  A    between atoms: _563  and  _564
REMARK  230  A    between atoms: _567  and  _569
REMARK  231  A    between atoms: _569  and  _570
REMARK  232  A    between atoms: _569  and  _572
REMARK  233  A    between atoms: _572  and  _573
REMARK  234  A    between atoms: _578  and  _580
REMARK  235  A    between atoms: _580  and  _581
REMARK  236  A    between atoms: _580  and  _583
REMARK  237  A    between atoms: _583  and  _584
REMARK  238  A    between atoms: _586  and  _588
REMARK  239  A    between atoms: _588  and  _589
REMARK  240  A    between atoms: _592  and  _594
REMARK  241  A    between atoms: _594  and  _595
REMARK  242  A    between atoms: _598  and  _600
REMARK  243  A    between atoms: _600  and  _601
REMARK  244  A    between atoms: _603  and  _605
REMARK  245  A    between atoms: _605  and  _606
REMARK  246  A    between atoms: _605  and  _608
REMARK  247  A    between atoms: _608  and  _609
REMARK  248  A    between atoms: _612  and  _614
REMARK  249  A    between atoms: _614  and  _615
REMARK  250  A    between atoms: _617  and  _619
REMARK  251  A    between atoms: _619  and  _620
REMARK  252  A    between atoms: _619  and  _622
REMARK  253  A    between atoms: _622  and  _623
REMARK  254  A    between atoms: _628  and  _630
REMARK  255  A    between atoms: _630  and  _631
REMARK  256  A    between atoms: _634  and  _636
REMARK  257  A    between atoms: _636  and  _637
REMARK  258  A    between atoms: _636  and  _639
REMARK  259  A    between atoms: _639  and  _640
REMARK  260  A    between atoms: _640  and  _641
REMARK  261  A    between atoms: _646  and  _648
REMARK  262  A    between atoms: _648  and  _649
REMARK  263  A    between atoms: _648  and  _651
REMARK  264  A    between atoms: _651  and  _652
REMARK  265  A    between atoms: _655  and  _657
REMARK  266  A    between atoms: _657  and  _658
REMARK  267  A    between atoms: _657  and  _660
REMARK  268  A    between atoms: _660  and  _661
REMARK                            x       y       z     vdW  Elec       q    Type
REMARK                         _______ _______ _______ _____ _____    ______ ____
ROOT
ATOM      1  O   HOH     1     115.374  39.740  92.705  0.00  0.00    +0.000 OA
ENDROOT
TORSDOF 0
REMARK  Name = ../refined-set-2016/3fzn/3fzn_pocket.pdb
REMARK  268 active torsions:
REMARK  status: ('A' for Active; 'I' for Inactive)
REMARK    1  A    between atoms: _1  and  _3
REMARK    2  A    between atoms: _3  and  _4
REMARK    3  A    between atoms: _6  and  _8
REMARK    4  A    between atoms: _8  and  _9
REMARK    5  A    between atoms: _8  and  _11
REMARK    6  A    between atoms: _11  and  _12
REMARK    7  A    between atoms: _17  and  _19
REMARK    8  A    between atoms: _19  and  _20
REMARK    9  A    between atoms: _19  and  _22
REMARK   10  A    between atoms: _22  and  _23
REMARK   11  A    between atoms: _25  and  _27
REMARK   12  A    between atoms: _27  and  _28
REMARK   13  A    between atoms: _27  and  _30
REMARK   14  A    between atoms: _30  and  _31
REMARK   15  A    between atoms: _36  and  _38
REMARK   16  A    between atoms: _38  and  _39
REMARK   17  A    between atoms: _38  and  _41
REMARK   18  A    between atoms: _41  and  _42
REMARK   19  A    between atoms: _42  and  _43
REMARK   20  A    between atoms: _49  and  _50
REMARK   21  A    between atoms: _55  and  _57
REMARK   22  A    between atoms: _57  and  _58
REMARK   23  A    between atoms: _57  and  _60
REMARK   24  A    between atoms: _60  and  _61
REMARK   25  A    between atoms: _66  and  _68
REMARK   26  A    between atoms: _68  and  _69
REMARK   27  A    between atoms: _68  and  _71
REMARK   28  A    between atoms: _71  and  _72
REMARK   29  A    between atoms: _72  and  _73
REMARK   30  A    between atoms: _76  and  _78
REMARK   31  A    between atoms: _78  and  _79
REMARK   32  A    between atoms: _78  and  _81
REMARK   33  A    between atoms: _81  and  _82
REMARK   34  A    between atoms: _84  and  _86
REMARK   35  A    between atoms: _86  and  _87
REMARK   36  A    between atoms: _86  and  _89
REMARK   37  A    between atoms: _89  and  _90
REMARK   38  A    between atoms: _93  and  _95
REMARK   39  A    between atoms: _95  and  _96
REMARK   40  A    between atoms: _95  and  _98
REMARK   41  A    between atoms: _98  and  _99
REMARK   42  A    between atoms: _101  and  _103
REMARK   43  A    between atoms: _103  and  _104
REMARK   44  A    between atoms: _103  and  _106
REMARK   45  A    between atoms: _106  and  _107
REMARK   46  A    between atoms: _110  and  _112
REMARK   47  A    between atoms: _112  and  _113
REMARK   48  A    between atoms: _112  and  _115
REMARK   49  A    between atoms: _115  and  _116
REMARK   50  A    between atoms: _119  and  _121
REMARK   51  A    between atoms: _121  and  _122
REMARK   52  A    between atoms: _121  and  _124
REMARK   53  A    between atoms: _124  and  _125
REMARK   54  A    between atoms: _131  and  _133
REMARK   55  A    between atoms: _133  and  _134
REMARK   56  A    between atoms: _133  and  _136
REMARK   57  A    between atoms: _138  and  _140
REMARK   58  A    between atoms: _140  and  _141
REMARK   59  A    between atoms: _144  and  _146
REMARK   60  A    between atoms: _146  and  _147
REMARK   61  A    between atoms: _149  and  _151
REMARK   62  A    between atoms: _151  and  _152
REMARK   63  A    between atoms: _154  and  _156
REMARK   64  A    between atoms: _156  and  _157
REMARK   65  A    between atoms: _156  and  _159
REMARK   66  A    between atoms: _159  and  _160
REMARK   67  A    between atoms: _163  and  _165
REMARK   68  A    between atoms: _165  and  _166
REMARK   69  A    between atoms: _168  and  _170
REMARK   70  A    between atoms: _170  and  _171
REMARK   71  A    between atoms: _170  and  _173
REMARK   72  A    between atoms: _173  and  _174
REMARK   73  A    between atoms: _180  and  _182
REMARK   74  A    between atoms: _182  and  _183
REMARK   75  A    between atoms: _182  and  _185
REMARK   76  A    between atoms: _188  and  _190
REMARK   77  A    between atoms: _190  and  _191
REMARK   78  A    between atoms: _190  and  _193
REMARK   79  A    between atoms: _193  and  _194
REMARK   80  A    between atoms: _197  and  _199
REMARK   81  A    between atoms: _199  and  _200
REMARK   82  A    between atoms: _202  and  _204
REMARK   83  A    between atoms: _204  and  _205
REMARK   84  A    between atoms: _204  and  _207
REMARK   85  A    between atoms: _207  and  _208
REMARK   86  A    between atoms: _208  and  _209
REMARK   87  A    between atoms: _209  and  MG_664
REMARK   88  A    between atoms: _211  and  _213
REMARK   89  A    between atoms: _213  and  _214
REMARK   90  A    between atoms: _216  and  _218
REMARK   91  A    between atoms: _218  and  _219
REMARK   92  A    between atoms: _218  and  _221
REMARK   93  A    between atoms: _221  and  _222
REMARK   94  A    between atoms: _224  and  _226
REMARK   95  A    between atoms: _226  and  _227
REMARK   96  A    between atoms: _230  and  _232
REMARK   97  A    between atoms: _232  and  _233
REMARK   98  A    between atoms: _232  and  _235
REMARK   99  A    between atoms: _235  and  _236
REMARK  100  A    between atoms: _241  and  _243
REMARK  101  A    between atoms: _243  and  _244
REMARK  102  A    between atoms: _243  and  _246
REMARK  103  A    between atoms: _246  and  _247
REMARK  104  A    between atoms: _252  and  _253
REMARK  105  A    between atoms: _255  and  _257
REMARK  106  A    between atoms: _257  and  _258
REMARK  107  A    between atoms: _257  and  _260
REMARK  108  A    between atoms: _260  and  _261
REMARK  109  A    between atoms: _264  and  _266
REMARK  110  A    between atoms: _266  and  _267
REMARK  111  A    between atoms: _266  and  _269
REMARK  112  A    between atoms: _269  and  _270
REMARK  113  A    between atoms: _270  and  _271
REMARK  114  A    between atoms: _273  and  _275
REMARK  115  A    between atoms: _275  and  _276
REMARK  116  A    between atoms: _275  and  _278
REMARK  117  A    between atoms: _278  and  _279
REMARK  118  A    between atoms: _284  and  _286
REMARK  119  A    between atoms: _286  and  _287
REMARK  120  A    between atoms: _286  and  _289
REMARK  121  A    between atoms: _289  and  _290
REMARK  122  A    between atoms: _290  and  _291
REMARK  123  A    between atoms: _290  and  _292
REMARK  124  A    between atoms: _291  and  MG_664
REMARK  125  A    between atoms: _295  and  _297
REMARK  126  A    between atoms: _297  and  _298
REMARK  127  A    between atoms: _300  and  _302
REMARK  128  A    between atoms: _302  and  _303
REMARK  129  A    between atoms: _302  and  _305
REMARK  130  A    between atoms: _305  and  _306
REMARK  131  A    between atoms: _309  and  _311
REMARK  132  A    between atoms: _311  and  _312
REMARK  133  A    between atoms: _311  and  _314
REMARK  134  A    between atoms: _314  and  _315
REMARK  135  A    between atoms: _320  and  _321
REMARK  136  A    between atoms: _323  and  _325
REMARK  137  A    between atoms: _325  and  _326
REMARK  138  A    between atoms: _328  and  _330
REMARK  139  A    between atoms: _330  and  _331
REMARK  140  A    between atoms: _334  and  _336
REMARK  141  A    between atoms: _336  and  _337
REMARK  142  A    between atoms: _336  and  _339
REMARK  143  A    between atoms: _339  and  _340
REMARK  144  A    between atoms: _343  and  _345
REMARK  145  A    between atoms: _345  and  _346
REMARK  146  A    between atoms: _345  and  _348
REMARK  147  A    between atoms: _348  and  _349
REMARK  148  A    between atoms: _349  and  _350
REMARK  149  A    between atoms: _350  and  _351
REMARK  150  A    between atoms: _360  and  _362
REMARK  151  A    between atoms: _362  and  _363
REMARK  152  A    between atoms: _362  and  _365
REMARK  153  A    between atoms: _365  and  _366
REMARK  154  A    between atoms: _376  and  _378
REMARK  155  A    between atoms: _378  and  _379
REMARK  156  A    between atoms: _378  and  _381
REMARK  157  A    between atoms: _381  and  _382
REMARK  158  A    between atoms: _388  and  _390
REMARK  159  A    between atoms: _390  and  _391
REMARK  160  A    between atoms: _394  and  _396
REMARK  161  A    between atoms: _396  and  _397
REMARK  162  A    between atoms: _399  and  _401
REMARK  163  A    between atoms: _401  and  _402
REMARK  164  A    between atoms: _401  and  _404
REMARK  165  A    between atoms: _404  and  _405
REMARK  166  A    between atoms: _408  and  _410
REMARK  167  A    between atoms: _410  and  _411
REMARK  168  A    between atoms: _410  and  _413
REMARK  169  A    between atoms: _416  and  _418
REMARK  170  A    between atoms: _418  and  _419
REMARK  171  A    between atoms: _418  and  _421
REMARK  172  A    between atoms: _421  and  _422
REMARK  173  A    between atoms: _428  and  _430
REMARK  174  A    between atoms: _430  and  _431
REMARK  175  A    between atoms: _430  and  _433
REMARK  176  A    between atoms: _433  and  _434
REMARK  177  A    between atoms: _437  and  _439
REMARK  178  A    between atoms: _439  and  _440
REMARK  179  A    between atoms: _439  and  _442
REMARK  180  A    between atoms: _445  and  _447
REMARK  181  A    between atoms: _447  and  _448
REMARK  182  A    between atoms: _447  and  _450
REMARK  183  A    between atoms: _450  and  _451
REMARK  184  A    between atoms: _457  and  _458
REMARK  185  A    between atoms: _463  and  _465
REMARK  186  A    between atoms: _465  and  _466
REMARK  187  A    between atoms: _468  and  _470
REMARK  188  A    between atoms: _470  and  _471
REMARK  189  A    between atoms: _470  and  _473
REMARK  190  A    between atoms: _473  and  _474
REMARK  191  A    between atoms: _476  and  _478
REMARK  192  A    between atoms: _478  and  _479
REMARK  193  A    between atoms: _478  and  _481
REMARK  194  A    between atoms: _481  and  _482
REMARK  195  A    between atoms: _487  and  _489
REMARK  196  A    between atoms: _489  and  _490
REMARK  197  A    between atoms: _489  and  _492
REMARK  198  A    between atoms: _492  and  _493
REMARK  199  A    between atoms: _493  and  _494
REMARK  200  A    between atoms: _497  and  _499
REMARK  201  A    between atoms: _499  and  _500
REMARK  202  A    between atoms: _499  and  _502
REMARK  203  A    between atoms: _502  and  _503
REMARK  204  A    between atoms: _506  and  _508
REMARK  205  A    between atoms: _508  and  _509
REMARK  206  A    between atoms: _508  and  _511
REMARK  207  A    between atoms: _511  and  _512
REMARK  208  A    between atoms: _515  and  _517
REMARK  209  A    between atoms: _517  and  _518
REMARK  210  A    between atoms: _521  and  _523
REMARK  211  A    between atoms: _523  and  _524
REMARK  212  A    between atoms: _523  and  _526
REMARK  213  A    between atoms: _526  and  _527
REMARK  214  A    between atoms: _530  and  _532
REMARK  215  A    between atoms: _532  and  _533
REMARK  216  A    between atoms: _532  and  _535
REMARK  217  A    between atoms: _535  and  _536
REMARK  218  A    between atoms: _536  and  _537
REMARK  219  A    between atoms: _542  and  _544
REMARK  220  A    between atoms: _544  and  _545
REMARK  221  A    between atoms: _544  and  _547
REMARK  222  A    between atoms: _547  and  _548
REMARK  223  A    between atoms: _548  and  _549
REMARK  224  A    between atoms: _552  and  _554
REMARK  225  A    between atoms: _554  and  _555
REMARK  226  A    between atoms: _558  and  _560
REMARK  227  A    between atoms: _560  and  _561
REMARK  228  A    between atoms: _560  and  _563
REMARK  229  A    between atoms: _563  and  _564
REMARK  230  A    between atoms: _567  and  _569
REMARK  231  A    between atoms: _569  and  _570
REMARK  232  A    between atoms: _569  and  _572
REMARK  233  A    between atoms: _572  and  _573
REMARK  234  A    between atoms: _578  and  _580
REMARK  235  A    between atoms: _580  and  _581
REMARK  236  A    between atoms: _580  and  _583
REMARK  237  A    between atoms: _583  and  _584
REMARK  238  A    between atoms: _586  and  _588
REMARK  239  A    between atoms: _588  and  _589
REMARK  240  A    between atoms: _592  and  _594
REMARK  241  A    between atoms: _594  and  _595
REMARK  242  A    between atoms: _598  and  _600
REMARK  243  A    between atoms: _600  and  _601
REMARK  244  A    between atoms: _603  and  _605
REMARK  245  A    between atoms: _605  and  _606
REMARK  246  A    between atoms: _605  and  _608
REMARK  247  A    between atoms: _608  and  _609
REMARK  248  A    between atoms: _612  and  _614
REMARK  249  A    between atoms: _614  and  _615
REMARK  250  A    between atoms: _617  and  _619
REMARK  251  A    between atoms: _619  and  _620
REMARK  252  A    between atoms: _619  and  _622
REMARK  253  A    between atoms: _622  and  _623
REMARK  254  A    between atoms: _628  and  _630
REMARK  255  A    between atoms: _630  and  _631
REMARK  256  A    between atoms: _634  and  _636
REMARK  257  A    between atoms: _636  and  _637
REMARK  258  A    between atoms: _636  and  _639
REMARK  259  A    between atoms: _639  and  _640
REMARK  260  A    between atoms: _640  and  _641
REMARK  261  A    between atoms: _646  and  _648
REMARK  262  A    between atoms: _648  and  _649
REMARK  263  A    between atoms: _648  and  _651
REMARK  264  A    between atoms: _651  and  _652
REMARK  265  A    between atoms: _655  and  _657
REMARK  266  A    between atoms: _657  and  _658
REMARK  267  A    between atoms: _657  and  _660
REMARK  268  A    between atoms: _660  and  _661
REMARK                            x       y       z     vdW  Elec       q    Type
REMARK                         _______ _______ _______ _____ _____    ______ ____
ROOT
ATOM      1  O   HOH     1     115.552  50.611  87.302  0.00  0.00    +0.000 OA
ENDROOT
TORSDOF 0
REMARK  Name = ../refined-set-2016/3fzn/3fzn_pocket.pdb
REMARK  268 active torsions:
REMARK  status: ('A' for Active; 'I' for Inactive)
REMARK    1  A    between atoms: _1  and  _3
REMARK    2  A    between atoms: _3  and  _4
REMARK    3  A    between atoms: _6  and  _8
REMARK    4  A    between atoms: _8  and  _9
REMARK    5  A    between atoms: _8  and  _11
REMARK    6  A    between atoms: _11  and  _12
REMARK    7  A    between atoms: _17  and  _19
REMARK    8  A    between atoms: _19  and  _20
REMARK    9  A    between atoms: _19  and  _22
REMARK   10  A    between atoms: _22  and  _23
REMARK   11  A    between atoms: _25  and  _27
REMARK   12  A    between atoms: _27  and  _28
REMARK   13  A    between atoms: _27  and  _30
REMARK   14  A    between atoms: _30  and  _31
REMARK   15  A    between atoms: _36  and  _38
REMARK   16  A    between atoms: _38  and  _39
REMARK   17  A    between atoms: _38  and  _41
REMARK   18  A    between atoms: _41  and  _42
REMARK   19  A    between atoms: _42  and  _43
REMARK   20  A    between atoms: _49  and  _50
REMARK   21  A    between atoms: _55  and  _57
REMARK   22  A    between atoms: _57  and  _58
REMARK   23  A    between atoms: _57  and  _60
REMARK   24  A    between atoms: _60  and  _61
REMARK   25  A    between atoms: _66  and  _68
REMARK   26  A    between atoms: _68  and  _69
REMARK   27  A    between atoms: _68  and  _71
REMARK   28  A    between atoms: _71  and  _72
REMARK   29  A    between atoms: _72  and  _73
REMARK   30  A    between atoms: _76  and  _78
REMARK   31  A    between atoms: _78  and  _79
REMARK   32  A    between atoms: _78  and  _81
REMARK   33  A    between atoms: _81  and  _82
REMARK   34  A    between atoms: _84  and  _86
REMARK   35  A    between atoms: _86  and  _87
REMARK   36  A    between atoms: _86  and  _89
REMARK   37  A    between atoms: _89  and  _90
REMARK   38  A    between atoms: _93  and  _95
REMARK   39  A    between atoms: _95  and  _96
REMARK   40  A    between atoms: _95  and  _98
REMARK   41  A    between atoms: _98  and  _99
REMARK   42  A    between atoms: _101  and  _103
REMARK   43  A    between atoms: _103  and  _104
REMARK   44  A    between atoms: _103  and  _106
REMARK   45  A    between atoms: _106  and  _107
REMARK   46  A    between atoms: _110  and  _112
REMARK   47  A    between atoms: _112  and  _113
REMARK   48  A    between atoms: _112  and  _115
REMARK   49  A    between atoms: _115  and  _116
REMARK   50  A    between atoms: _119  and  _121
REMARK   51  A    between atoms: _121  and  _122
REMARK   52  A    between atoms: _121  and  _124
REMARK   53  A    between atoms: _124  and  _125
REMARK   54  A    between atoms: _131  and  _133
REMARK   55  A    between atoms: _133  and  _134
REMARK   56  A    between atoms: _133  and  _136
REMARK   57  A    between atoms: _138  and  _140
REMARK   58  A    between atoms: _140  and  _141
REMARK   59  A    between atoms: _144  and  _146
REMARK   60  A    between atoms: _146  and  _147
REMARK   61  A    between atoms: _149  and  _151
REMARK   62  A    between atoms: _151  and  _152
REMARK   63  A    between atoms: _154  and  _156
REMARK   64  A    between atoms: _156  and  _157
REMARK   65  A    between atoms: _156  and  _159
REMARK   66  A    between atoms: _159  and  _160
REMARK   67  A    between atoms: _163  and  _165
REMARK   68  A    between atoms: _165  and  _166
REMARK   69  A    between atoms: _168  and  _170
REMARK   70  A    between atoms: _170  and  _171
REMARK   71  A    between atoms: _170  and  _173
REMARK   72  A    between atoms: _173  and  _174
REMARK   73  A    between atoms: _180  and  _182
REMARK   74  A    between atoms: _182  and  _183
REMARK   75  A    between atoms: _182  and  _185
REMARK   76  A    between atoms: _188  and  _190
REMARK   77  A    between atoms: _190  and  _191
REMARK   78  A    between atoms: _190  and  _193
REMARK   79  A    between atoms: _193  and  _194
REMARK   80  A    between atoms: _197  and  _199
REMARK   81  A    between atoms: _199  and  _200
REMARK   82  A    between atoms: _202  and  _204
REMARK   83  A    between atoms: _204  and  _205
REMARK   84  A    between atoms: _204  and  _207
REMARK   85  A    between atoms: _207  and  _208
REMARK   86  A    between atoms: _208  and  _209
REMARK   87  A    between atoms: _209  and  MG_664
REMARK   88  A    between atoms: _211  and  _213
REMARK   89  A    between atoms: _213  and  _214
REMARK   90  A    between atoms: _216  and  _218
REMARK   91  A    between atoms: _218  and  _219
REMARK   92  A    between atoms: _218  and  _221
REMARK   93  A    between atoms: _221  and  _222
REMARK   94  A    between atoms: _224  and  _226
REMARK   95  A    between atoms: _226  and  _227
REMARK   96  A    between atoms: _230  and  _232
REMARK   97  A    between atoms: _232  and  _233
REMARK   98  A    between atoms: _232  and  _235
REMARK   99  A    between atoms: _235  and  _236
REMARK  100  A    between atoms: _241  and  _243
REMARK  101  A    between atoms: _243  and  _244
REMARK  102  A    between atoms: _243  and  _246
REMARK  103  A    between atoms: _246  and  _247
REMARK  104  A    between atoms: _252  and  _253
REMARK  105  A    between atoms: _255  and  _257
REMARK  106  A    between atoms: _257  and  _258
REMARK  107  A    between atoms: _257  and  _260
REMARK  108  A    between atoms: _260  and  _261
REMARK  109  A    between atoms: _264  and  _266
REMARK  110  A    between atoms: _266  and  _267
REMARK  111  A    between atoms: _266  and  _269
REMARK  112  A    between atoms: _269  and  _270
REMARK  113  A    between atoms: _270  and  _271
REMARK  114  A    between atoms: _273  and  _275
REMARK  115  A    between atoms: _275  and  _276
REMARK  116  A    between atoms: _275  and  _278
REMARK  117  A    between atoms: _278  and  _279
REMARK  118  A    between atoms: _284  and  _286
REMARK  119  A    between atoms: _286  and  _287
REMARK  120  A    between atoms: _286  and  _289
REMARK  121  A    between atoms: _289  and  _290
REMARK  122  A    between atoms: _290  and  _291
REMARK  123  A    between atoms: _290  and  _292
REMARK  124  A    between atoms: _291  and  MG_664
REMARK  125  A    between atoms: _295  and  _297
REMARK  126  A    between atoms: _297  and  _298
REMARK  127  A    between atoms: _300  and  _302
REMARK  128  A    between atoms: _302  and  _303
REMARK  129  A    between atoms: _302  and  _305
REMARK  130  A    between atoms: _305  and  _306
REMARK  131  A    between atoms: _309  and  _311
REMARK  132  A    between atoms: _311  and  _312
REMARK  133  A    between atoms: _311  and  _314
REMARK  134  A    between atoms: _314  and  _315
REMARK  135  A    between atoms: _320  and  _321
REMARK  136  A    between atoms: _323  and  _325
REMARK  137  A    between atoms: _325  and  _326
REMARK  138  A    between atoms: _328  and  _330
REMARK  139  A    between atoms: _330  and  _331
REMARK  140  A    between atoms: _334  and  _336
REMARK  141  A    between atoms: _336  and  _337
REMARK  142  A    between atoms: _336  and  _339
REMARK  143  A    between atoms: _339  and  _340
REMARK  144  A    between atoms: _343  and  _345
REMARK  145  A    between atoms: _345  and  _346
REMARK  146  A    between atoms: _345  and  _348
REMARK  147  A    between atoms: _348  and  _349
REMARK  148  A    between atoms: _349  and  _350
REMARK  149  A    between atoms: _350  and  _351
REMARK  150  A    between atoms: _360  and  _362
REMARK  151  A    between atoms: _362  and  _363
REMARK  152  A    between atoms: _362  and  _365
REMARK  153  A    between atoms: _365  and  _366
REMARK  154  A    between atoms: _376  and  _378
REMARK  155  A    between atoms: _378  and  _379
REMARK  156  A    between atoms: _378  and  _381
REMARK  157  A    between atoms: _381  and  _382
REMARK  158  A    between atoms: _388  and  _390
REMARK  159  A    between atoms: _390  and  _391
REMARK  160  A    between atoms: _394  and  _396
REMARK  161  A    between atoms: _396  and  _397
REMARK  162  A    between atoms: _399  and  _401
REMARK  163  A    between atoms: _401  and  _402
REMARK  164  A    between atoms: _401  and  _404
REMARK  165  A    between atoms: _404  and  _405
REMARK  166  A    between atoms: _408  and  _410
REMARK  167  A    between atoms: _410  and  _411
REMARK  168  A    between atoms: _410  and  _413
REMARK  169  A    between atoms: _416  and  _418
REMARK  170  A    between atoms: _418  and  _419
REMARK  171  A    between atoms: _418  and  _421
REMARK  172  A    between atoms: _421  and  _422
REMARK  173  A    between atoms: _428  and  _430
REMARK  174  A    between atoms: _430  and  _431
REMARK  175  A    between atoms: _430  and  _433
REMARK  176  A    between atoms: _433  and  _434
REMARK  177  A    between atoms: _437  and  _439
REMARK  178  A    between atoms: _439  and  _440
REMARK  179  A    between atoms: _439  and  _442
REMARK  180  A    between atoms: _445  and  _447
REMARK  181  A    between atoms: _447  and  _448
REMARK  182  A    between atoms: _447  and  _450
REMARK  183  A    between atoms: _450  and  _451
REMARK  184  A    between atoms: _457  and  _458
REMARK  185  A    between atoms: _463  and  _465
REMARK  186  A    between atoms: _465  and  _466
REMARK  187  A    between atoms: _468  and  _470
REMARK  188  A    between atoms: _470  and  _471
REMARK  189  A    between atoms: _470  and  _473
REMARK  190  A    between atoms: _473  and  _474
REMARK  191  A    between atoms: _476  and  _478
REMARK  192  A    between atoms: _478  and  _479
REMARK  193  A    between atoms: _478  and  _481
REMARK  194  A    between atoms: _481  and  _482
REMARK  195  A    between atoms: _487  and  _489
REMARK  196  A    between atoms: _489  and  _490
REMARK  197  A    between atoms: _489  and  _492
REMARK  198  A    between atoms: _492  and  _493
REMARK  199  A    between atoms: _493  and  _494
REMARK  200  A    between atoms: _497  and  _499
REMARK  201  A    between atoms: _499  and  _500
REMARK  202  A    between atoms: _499  and  _502
REMARK  203  A    between atoms: _502  and  _503
REMARK  204  A    between atoms: _506  and  _508
REMARK  205  A    between atoms: _508  and  _509
REMARK  206  A    between atoms: _508  and  _511
REMARK  207  A    between atoms: _511  and  _512
REMARK  208  A    between atoms: _515  and  _517
REMARK  209  A    between atoms: _517  and  _518
REMARK  210  A    between atoms: _521  and  _523
REMARK  211  A    between atoms: _523  and  _524
REMARK  212  A    between atoms: _523  and  _526
REMARK  213  A    between atoms: _526  and  _527
REMARK  214  A    between atoms: _530  and  _532
REMARK  215  A    between atoms: _532  and  _533
REMARK  216  A    between atoms: _532  and  _535
REMARK  217  A    between atoms: _535  and  _536
REMARK  218  A    between atoms: _536  and  _537
REMARK  219  A    between atoms: _542  and  _544
REMARK  220  A    between atoms: _544  and  _545
REMARK  221  A    between atoms: _544  and  _547
REMARK  222  A    between atoms: _547  and  _548
REMARK  223  A    between atoms: _548  and  _549
REMARK  224  A    between atoms: _552  and  _554
REMARK  225  A    between atoms: _554  and  _555
REMARK  226  A    between atoms: _558  and  _560
REMARK  227  A    between atoms: _560  and  _561
REMARK  228  A    between atoms: _560  and  _563
REMARK  229  A    between atoms: _563  and  _564
REMARK  230  A    between atoms: _567  and  _569
REMARK  231  A    between atoms: _569  and  _570
REMARK  232  A    between atoms: _569  and  _572
REMARK  233  A    between atoms: _572  and  _573
REMARK  234  A    between atoms: _578  and  _580
REMARK  235  A    between atoms: _580  and  _581
REMARK  236  A    between atoms: _580  and  _583
REMARK  237  A    between atoms: _583  and  _584
REMARK  238  A    between atoms: _586  and  _588
REMARK  239  A    between atoms: _588  and  _589
REMARK  240  A    between atoms: _592  and  _594
REMARK  241  A    between atoms: _594  and  _595
REMARK  242  A    between atoms: _598  and  _600
REMARK  243  A    between atoms: _600  and  _601
REMARK  244  A    between atoms: _603  and  _605
REMARK  245  A    between atoms: _605  and  _606
REMARK  246  A    between atoms: _605  and  _608
REMARK  247  A    between atoms: _608  and  _609
REMARK  248  A    between atoms: _612  and  _614
REMARK  249  A    between atoms: _614  and  _615
REMARK  250  A    between atoms: _617  and  _619
REMARK  251  A    between atoms: _619  and  _620
REMARK  252  A    between atoms: _619  and  _622
REMARK  253  A    between atoms: _622  and  _623
REMARK  254  A    between atoms: _628  and  _630
REMARK  255  A    between atoms: _630  and  _631
REMARK  256  A    between atoms: _634  and  _636
REMARK  257  A    between atoms: _636  and  _637
REMARK  258  A    between atoms: _636  and  _639
REMARK  259  A    between atoms: _639  and  _640
REMARK  260  A    between atoms: _640  and  _641
REMARK  261  A    between atoms: _646  and  _648
REMARK  262  A    between atoms: _648  and  _649
REMARK  263  A    between atoms: _648  and  _651
REMARK  264  A    between atoms: _651  and  _652
REMARK  265  A    between atoms: _655  and  _657
REMARK  266  A    between atoms: _657  and  _658
REMARK  267  A    between atoms: _657  and  _660
REMARK  268  A    between atoms: _660  and  _661
REMARK                            x       y       z     vdW  Elec       q    Type
REMARK                         _______ _______ _______ _____ _____    ______ ____
ROOT
ATOM      1  O   HOH     1     116.023  37.798  99.665  0.00  0.00    +0.000 OA
ENDROOT
TORSDOF 0
REMARK  Name = ../refined-set-2016/3fzn/3fzn_pocket.pdb
REMARK  268 active torsions:
REMARK  status: ('A' for Active; 'I' for Inactive)
REMARK    1  A    between atoms: _1  and  _3
REMARK    2  A    between atoms: _3  and  _4
REMARK    3  A    between atoms: _6  and  _8
REMARK    4  A    between atoms: _8  and  _9
REMARK    5  A    between atoms: _8  and  _11
REMARK    6  A    between atoms: _11  and  _12
REMARK    7  A    between atoms: _17  and  _19
REMARK    8  A    between atoms: _19  and  _20
REMARK    9  A    between atoms: _19  and  _22
REMARK   10  A    between atoms: _22  and  _23
REMARK   11  A    between atoms: _25  and  _27
REMARK   12  A    between atoms: _27  and  _28
REMARK   13  A    between atoms: _27  and  _30
REMARK   14  A    between atoms: _30  and  _31
REMARK   15  A    between atoms: _36  and  _38
REMARK   16  A    between atoms: _38  and  _39
REMARK   17  A    between atoms: _38  and  _41
REMARK   18  A    between atoms: _41  and  _42
REMARK   19  A    between atoms: _42  and  _43
REMARK   20  A    between atoms: _49  and  _50
REMARK   21  A    between atoms: _55  and  _57
REMARK   22  A    between atoms: _57  and  _58
REMARK   23  A    between atoms: _57  and  _60
REMARK   24  A    between atoms: _60  and  _61
REMARK   25  A    between atoms: _66  and  _68
REMARK   26  A    between atoms: _68  and  _69
REMARK   27  A    between atoms: _68  and  _71
REMARK   28  A    between atoms: _71  and  _72
REMARK   29  A    between atoms: _72  and  _73
REMARK   30  A    between atoms: _76  and  _78
REMARK   31  A    between atoms: _78  and  _79
REMARK   32  A    between atoms: _78  and  _81
REMARK   33  A    between atoms: _81  and  _82
REMARK   34  A    between atoms: _84  and  _86
REMARK   35  A    between atoms: _86  and  _87
REMARK   36  A    between atoms: _86  and  _89
REMARK   37  A    between atoms: _89  and  _90
REMARK   38  A    between atoms: _93  and  _95
REMARK   39  A    between atoms: _95  and  _96
REMARK   40  A    between atoms: _95  and  _98
REMARK   41  A    between atoms: _98  and  _99
REMARK   42  A    between atoms: _101  and  _103
REMARK   43  A    between atoms: _103  and  _104
REMARK   44  A    between atoms: _103  and  _106
REMARK   45  A    between atoms: _106  and  _107
REMARK   46  A    between atoms: _110  and  _112
REMARK   47  A    between atoms: _112  and  _113
REMARK   48  A    between atoms: _112  and  _115
REMARK   49  A    between atoms: _115  and  _116
REMARK   50  A    between atoms: _119  and  _121
REMARK   51  A    between atoms: _121  and  _122
REMARK   52  A    between atoms: _121  and  _124
REMARK   53  A    between atoms: _124  and  _125
REMARK   54  A    between atoms: _131  and  _133
REMARK   55  A    between atoms: _133  and  _134
REMARK   56  A    between atoms: _133  and  _136
REMARK   57  A    between atoms: _138  and  _140
REMARK   58  A    between atoms: _140  and  _141
REMARK   59  A    between atoms: _144  and  _146
REMARK   60  A    between atoms: _146  and  _147
REMARK   61  A    between atoms: _149  and  _151
REMARK   62  A    between atoms: _151  and  _152
REMARK   63  A    between atoms: _154  and  _156
REMARK   64  A    between atoms: _156  and  _157
REMARK   65  A    between atoms: _156  and  _159
REMARK   66  A    between atoms: _159  and  _160
REMARK   67  A    between atoms: _163  and  _165
REMARK   68  A    between atoms: _165  and  _166
REMARK   69  A    between atoms: _168  and  _170
REMARK   70  A    between atoms: _170  and  _171
REMARK   71  A    between atoms: _170  and  _173
REMARK   72  A    between atoms: _173  and  _174
REMARK   73  A    between atoms: _180  and  _182
REMARK   74  A    between atoms: _182  and  _183
REMARK   75  A    between atoms: _182  and  _185
REMARK   76  A    between atoms: _188  and  _190
REMARK   77  A    between atoms: _190  and  _191
REMARK   78  A    between atoms: _190  and  _193
REMARK   79  A    between atoms: _193  and  _194
REMARK   80  A    between atoms: _197  and  _199
REMARK   81  A    between atoms: _199  and  _200
REMARK   82  A    between atoms: _202  and  _204
REMARK   83  A    between atoms: _204  and  _205
REMARK   84  A    between atoms: _204  and  _207
REMARK   85  A    between atoms: _207  and  _208
REMARK   86  A    between atoms: _208  and  _209
REMARK   87  A    between atoms: _209  and  MG_664
REMARK   88  A    between atoms: _211  and  _213
REMARK   89  A    between atoms: _213  and  _214
REMARK   90  A    between atoms: _216  and  _218
REMARK   91  A    between atoms: _218  and  _219
REMARK   92  A    between atoms: _218  and  _221
REMARK   93  A    between atoms: _221  and  _222
REMARK   94  A    between atoms: _224  and  _226
REMARK   95  A    between atoms: _226  and  _227
REMARK   96  A    between atoms: _230  and  _232
REMARK   97  A    between atoms: _232  and  _233
REMARK   98  A    between atoms: _232  and  _235
REMARK   99  A    between atoms: _235  and  _236
REMARK  100  A    between atoms: _241  and  _243
REMARK  101  A    between atoms: _243  and  _244
REMARK  102  A    between atoms: _243  and  _246
REMARK  103  A    between atoms: _246  and  _247
REMARK  104  A    between atoms: _252  and  _253
REMARK  105  A    between atoms: _255  and  _257
REMARK  106  A    between atoms: _257  and  _258
REMARK  107  A    between atoms: _257  and  _260
REMARK  108  A    between atoms: _260  and  _261
REMARK  109  A    between atoms: _264  and  _266
REMARK  110  A    between atoms: _266  and  _267
REMARK  111  A    between atoms: _266  and  _269
REMARK  112  A    between atoms: _269  and  _270
REMARK  113  A    between atoms: _270  and  _271
REMARK  114  A    between atoms: _273  and  _275
REMARK  115  A    between atoms: _275  and  _276
REMARK  116  A    between atoms: _275  and  _278
REMARK  117  A    between atoms: _278  and  _279
REMARK  118  A    between atoms: _284  and  _286
REMARK  119  A    between atoms: _286  and  _287
REMARK  120  A    between atoms: _286  and  _289
REMARK  121  A    between atoms: _289  and  _290
REMARK  122  A    between atoms: _290  and  _291
REMARK  123  A    between atoms: _290  and  _292
REMARK  124  A    between atoms: _291  and  MG_664
REMARK  125  A    between atoms: _295  and  _297
REMARK  126  A    between atoms: _297  and  _298
REMARK  127  A    between atoms: _300  and  _302
REMARK  128  A    between atoms: _302  and  _303
REMARK  129  A    between atoms: _302  and  _305
REMARK  130  A    between atoms: _305  and  _306
REMARK  131  A    between atoms: _309  and  _311
REMARK  132  A    between atoms: _311  and  _312
REMARK  133  A    between atoms: _311  and  _314
REMARK  134  A    between atoms: _314  and  _315
REMARK  135  A    between atoms: _320  and  _321
REMARK  136  A    between atoms: _323  and  _325
REMARK  137  A    between atoms: _325  and  _326
REMARK  138  A    between atoms: _328  and  _330
REMARK  139  A    between atoms: _330  and  _331
REMARK  140  A    between atoms: _334  and  _336
REMARK  141  A    between atoms: _336  and  _337
REMARK  142  A    between atoms: _336  and  _339
REMARK  143  A    between atoms: _339  and  _340
REMARK  144  A    between atoms: _343  and  _345
REMARK  145  A    between atoms: _345  and  _346
REMARK  146  A    between atoms: _345  and  _348
REMARK  147  A    between atoms: _348  and  _349
REMARK  148  A    between atoms: _349  and  _350
REMARK  149  A    between atoms: _350  and  _351
REMARK  150  A    between atoms: _360  and  _362
REMARK  151  A    between atoms: _362  and  _363
REMARK  152  A    between atoms: _362  and  _365
REMARK  153  A    between atoms: _365  and  _366
REMARK  154  A    between atoms: _376  and  _378
REMARK  155  A    between atoms: _378  and  _379
REMARK  156  A    between atoms: _378  and  _381
REMARK  157  A    between atoms: _381  and  _382
REMARK  158  A    between atoms: _388  and  _390
REMARK  159  A    between atoms: _390  and  _391
REMARK  160  A    between atoms: _394  and  _396
REMARK  161  A    between atoms: _396  and  _397
REMARK  162  A    between atoms: _399  and  _401
REMARK  163  A    between atoms: _401  and  _402
REMARK  164  A    between atoms: _401  and  _404
REMARK  165  A    between atoms: _404  and  _405
REMARK  166  A    between atoms: _408  and  _410
REMARK  167  A    between atoms: _410  and  _411
REMARK  168  A    between atoms: _410  and  _413
REMARK  169  A    between atoms: _416  and  _418
REMARK  170  A    between atoms: _418  and  _419
REMARK  171  A    between atoms: _418  and  _421
REMARK  172  A    between atoms: _421  and  _422
REMARK  173  A    between atoms: _428  and  _430
REMARK  174  A    between atoms: _430  and  _431
REMARK  175  A    between atoms: _430  and  _433
REMARK  176  A    between atoms: _433  and  _434
REMARK  177  A    between atoms: _437  and  _439
REMARK  178  A    between atoms: _439  and  _440
REMARK  179  A    between atoms: _439  and  _442
REMARK  180  A    between atoms: _445  and  _447
REMARK  181  A    between atoms: _447  and  _448
REMARK  182  A    between atoms: _447  and  _450
REMARK  183  A    between atoms: _450  and  _451
REMARK  184  A    between atoms: _457  and  _458
REMARK  185  A    between atoms: _463  and  _465
REMARK  186  A    between atoms: _465  and  _466
REMARK  187  A    between atoms: _468  and  _470
REMARK  188  A    between atoms: _470  and  _471
REMARK  189  A    between atoms: _470  and  _473
REMARK  190  A    between atoms: _473  and  _474
REMARK  191  A    between atoms: _476  and  _478
REMARK  192  A    between atoms: _478  and  _479
REMARK  193  A    between atoms: _478  and  _481
REMARK  194  A    between atoms: _481  and  _482
REMARK  195  A    between atoms: _487  and  _489
REMARK  196  A    between atoms: _489  and  _490
REMARK  197  A    between atoms: _489  and  _492
REMARK  198  A    between atoms: _492  and  _493
REMARK  199  A    between atoms: _493  and  _494
REMARK  200  A    between atoms: _497  and  _499
REMARK  201  A    between atoms: _499  and  _500
REMARK  202  A    between atoms: _499  and  _502
REMARK  203  A    between atoms: _502  and  _503
REMARK  204  A    between atoms: _506  and  _508
REMARK  205  A    between atoms: _508  and  _509
REMARK  206  A    between atoms: _508  and  _511
REMARK  207  A    between atoms: _511  and  _512
REMARK  208  A    between atoms: _515  and  _517
REMARK  209  A    between atoms: _517  and  _518
REMARK  210  A    between atoms: _521  and  _523
REMARK  211  A    between atoms: _523  and  _524
REMARK  212  A    between atoms: _523  and  _526
REMARK  213  A    between atoms: _526  and  _527
REMARK  214  A    between atoms: _530  and  _532
REMARK  215  A    between atoms: _532  and  _533
REMARK  216  A    between atoms: _532  and  _535
REMARK  217  A    between atoms: _535  and  _536
REMARK  218  A    between atoms: _536  and  _537
REMARK  219  A    between atoms: _542  and  _544
REMARK  220  A    between atoms: _544  and  _545
REMARK  221  A    between atoms: _544  and  _547
REMARK  222  A    between atoms: _547  and  _548
REMARK  223  A    between atoms: _548  and  _549
REMARK  224  A    between atoms: _552  and  _554
REMARK  225  A    between atoms: _554  and  _555
REMARK  226  A    between atoms: _558  and  _560
REMARK  227  A    between atoms: _560  and  _561
REMARK  228  A    between atoms: _560  and  _563
REMARK  229  A    between atoms: _563  and  _564
REMARK  230  A    between atoms: _567  and  _569
REMARK  231  A    between atoms: _569  and  _570
REMARK  232  A    between atoms: _569  and  _572
REMARK  233  A    between atoms: _572  and  _573
REMARK  234  A    between atoms: _578  and  _580
REMARK  235  A    between atoms: _580  and  _581
REMARK  236  A    between atoms: _580  and  _583
REMARK  237  A    between atoms: _583  and  _584
REMARK  238  A    between atoms: _586  and  _588
REMARK  239  A    between atoms: _588  and  _589
REMARK  240  A    between atoms: _592  and  _594
REMARK  241  A    between atoms: _594  and  _595
REMARK  242  A    between atoms: _598  and  _600
REMARK  243  A    between atoms: _600  and  _601
REMARK  244  A    between atoms: _603  and  _605
REMARK  245  A    between atoms: _605  and  _606
REMARK  246  A    between atoms: _605  and  _608
REMARK  247  A    between atoms: _608  and  _609
REMARK  248  A    between atoms: _612  and  _614
REMARK  249  A    between atoms: _614  and  _615
REMARK  250  A    between atoms: _617  and  _619
REMARK  251  A    between atoms: _619  and  _620
REMARK  252  A    between atoms: _619  and  _622
REMARK  253  A    between atoms: _622  and  _623
REMARK  254  A    between atoms: _628  and  _630
REMARK  255  A    between atoms: _630  and  _631
REMARK  256  A    between atoms: _634  and  _636
REMARK  257  A    between atoms: _636  and  _637
REMARK  258  A    between atoms: _636  and  _639
REMARK  259  A    between atoms: _639  and  _640
REMARK  260  A    between atoms: _640  and  _641
REMARK  261  A    between atoms: _646  and  _648
REMARK  262  A    between atoms: _648  and  _649
REMARK  263  A    between atoms: _648  and  _651
REMARK  264  A    between atoms: _651  and  _652
REMARK  265  A    between atoms: _655  and  _657
REMARK  266  A    between atoms: _657  and  _658
REMARK  267  A    between atoms: _657  and  _660
REMARK  268  A    between atoms: _660  and  _661
REMARK                            x       y       z     vdW  Elec       q    Type
REMARK                         _______ _______ _______ _____ _____    ______ ____
ROOT
ATOM      1  O   HOH     1      99.305  45.951  90.605  0.00  0.00    +0.000 OA
ENDROOT
TORSDOF 0
REMARK  Name = ../refined-set-2016/3fzn/3fzn_pocket.pdb
REMARK  268 active torsions:
REMARK  status: ('A' for Active; 'I' for Inactive)
REMARK    1  A    between atoms: _1  and  _3
REMARK    2  A    between atoms: _3  and  _4
REMARK    3  A    between atoms: _6  and  _8
REMARK    4  A    between atoms: _8  and  _9
REMARK    5  A    between atoms: _8  and  _11
REMARK    6  A    between atoms: _11  and  _12
REMARK    7  A    between atoms: _17  and  _19
REMARK    8  A    between atoms: _19  and  _20
REMARK    9  A    between atoms: _19  and  _22
REMARK   10  A    between atoms: _22  and  _23
REMARK   11  A    between atoms: _25  and  _27
REMARK   12  A    between atoms: _27  and  _28
REMARK   13  A    between atoms: _27  and  _30
REMARK   14  A    between atoms: _30  and  _31
REMARK   15  A    between atoms: _36  and  _38
REMARK   16  A    between atoms: _38  and  _39
REMARK   17  A    between atoms: _38  and  _41
REMARK   18  A    between atoms: _41  and  _42
REMARK   19  A    between atoms: _42  and  _43
REMARK   20  A    between atoms: _49  and  _50
REMARK   21  A    between atoms: _55  and  _57
REMARK   22  A    between atoms: _57  and  _58
REMARK   23  A    between atoms: _57  and  _60
REMARK   24  A    between atoms: _60  and  _61
REMARK   25  A    between atoms: _66  and  _68
REMARK   26  A    between atoms: _68  and  _69
REMARK   27  A    between atoms: _68  and  _71
REMARK   28  A    between atoms: _71  and  _72
REMARK   29  A    between atoms: _72  and  _73
REMARK   30  A    between atoms: _76  and  _78
REMARK   31  A    between atoms: _78  and  _79
REMARK   32  A    between atoms: _78  and  _81
REMARK   33  A    between atoms: _81  and  _82
REMARK   34  A    between atoms: _84  and  _86
REMARK   35  A    between atoms: _86  and  _87
REMARK   36  A    between atoms: _86  and  _89
REMARK   37  A    between atoms: _89  and  _90
REMARK   38  A    between atoms: _93  and  _95
REMARK   39  A    between atoms: _95  and  _96
REMARK   40  A    between atoms: _95  and  _98
REMARK   41  A    between atoms: _98  and  _99
REMARK   42  A    between atoms: _101  and  _103
REMARK   43  A    between atoms: _103  and  _104
REMARK   44  A    between atoms: _103  and  _106
REMARK   45  A    between atoms: _106  and  _107
REMARK   46  A    between atoms: _110  and  _112
REMARK   47  A    between atoms: _112  and  _113
REMARK   48  A    between atoms: _112  and  _115
REMARK   49  A    between atoms: _115  and  _116
REMARK   50  A    between atoms: _119  and  _121
REMARK   51  A    between atoms: _121  and  _122
REMARK   52  A    between atoms: _121  and  _124
REMARK   53  A    between atoms: _124  and  _125
REMARK   54  A    between atoms: _131  and  _133
REMARK   55  A    between atoms: _133  and  _134
REMARK   56  A    between atoms: _133  and  _136
REMARK   57  A    between atoms: _138  and  _140
REMARK   58  A    between atoms: _140  and  _141
REMARK   59  A    between atoms: _144  and  _146
REMARK   60  A    between atoms: _146  and  _147
REMARK   61  A    between atoms: _149  and  _151
REMARK   62  A    between atoms: _151  and  _152
REMARK   63  A    between atoms: _154  and  _156
REMARK   64  A    between atoms: _156  and  _157
REMARK   65  A    between atoms: _156  and  _159
REMARK   66  A    between atoms: _159  and  _160
REMARK   67  A    between atoms: _163  and  _165
REMARK   68  A    between atoms: _165  and  _166
REMARK   69  A    between atoms: _168  and  _170
REMARK   70  A    between atoms: _170  and  _171
REMARK   71  A    between atoms: _170  and  _173
REMARK   72  A    between atoms: _173  and  _174
REMARK   73  A    between atoms: _180  and  _182
REMARK   74  A    between atoms: _182  and  _183
REMARK   75  A    between atoms: _182  and  _185
REMARK   76  A    between atoms: _188  and  _190
REMARK   77  A    between atoms: _190  and  _191
REMARK   78  A    between atoms: _190  and  _193
REMARK   79  A    between atoms: _193  and  _194
REMARK   80  A    between atoms: _197  and  _199
REMARK   81  A    between atoms: _199  and  _200
REMARK   82  A    between atoms: _202  and  _204
REMARK   83  A    between atoms: _204  and  _205
REMARK   84  A    between atoms: _204  and  _207
REMARK   85  A    between atoms: _207  and  _208
REMARK   86  A    between atoms: _208  and  _209
REMARK   87  A    between atoms: _209  and  MG_664
REMARK   88  A    between atoms: _211  and  _213
REMARK   89  A    between atoms: _213  and  _214
REMARK   90  A    between atoms: _216  and  _218
REMARK   91  A    between atoms: _218  and  _219
REMARK   92  A    between atoms: _218  and  _221
REMARK   93  A    between atoms: _221  and  _222
REMARK   94  A    between atoms: _224  and  _226
REMARK   95  A    between atoms: _226  and  _227
REMARK   96  A    between atoms: _230  and  _232
REMARK   97  A    between atoms: _232  and  _233
REMARK   98  A    between atoms: _232  and  _235
REMARK   99  A    between atoms: _235  and  _236
REMARK  100  A    between atoms: _241  and  _243
REMARK  101  A    between atoms: _243  and  _244
REMARK  102  A    between atoms: _243  and  _246
REMARK  103  A    between atoms: _246  and  _247
REMARK  104  A    between atoms: _252  and  _253
REMARK  105  A    between atoms: _255  and  _257
REMARK  106  A    between atoms: _257  and  _258
REMARK  107  A    between atoms: _257  and  _260
REMARK  108  A    between atoms: _260  and  _261
REMARK  109  A    between atoms: _264  and  _266
REMARK  110  A    between atoms: _266  and  _267
REMARK  111  A    between atoms: _266  and  _269
REMARK  112  A    between atoms: _269  and  _270
REMARK  113  A    between atoms: _270  and  _271
REMARK  114  A    between atoms: _273  and  _275
REMARK  115  A    between atoms: _275  and  _276
REMARK  116  A    between atoms: _275  and  _278
REMARK  117  A    between atoms: _278  and  _279
REMARK  118  A    between atoms: _284  and  _286
REMARK  119  A    between atoms: _286  and  _287
REMARK  120  A    between atoms: _286  and  _289
REMARK  121  A    between atoms: _289  and  _290
REMARK  122  A    between atoms: _290  and  _291
REMARK  123  A    between atoms: _290  and  _292
REMARK  124  A    between atoms: _291  and  MG_664
REMARK  125  A    between atoms: _295  and  _297
REMARK  126  A    between atoms: _297  and  _298
REMARK  127  A    between atoms: _300  and  _302
REMARK  128  A    between atoms: _302  and  _303
REMARK  129  A    between atoms: _302  and  _305
REMARK  130  A    between atoms: _305  and  _306
REMARK  131  A    between atoms: _309  and  _311
REMARK  132  A    between atoms: _311  and  _312
REMARK  133  A    between atoms: _311  and  _314
REMARK  134  A    between atoms: _314  and  _315
REMARK  135  A    between atoms: _320  and  _321
REMARK  136  A    between atoms: _323  and  _325
REMARK  137  A    between atoms: _325  and  _326
REMARK  138  A    between atoms: _328  and  _330
REMARK  139  A    between atoms: _330  and  _331
REMARK  140  A    between atoms: _334  and  _336
REMARK  141  A    between atoms: _336  and  _337
REMARK  142  A    between atoms: _336  and  _339
REMARK  143  A    between atoms: _339  and  _340
REMARK  144  A    between atoms: _343  and  _345
REMARK  145  A    between atoms: _345  and  _346
REMARK  146  A    between atoms: _345  and  _348
REMARK  147  A    between atoms: _348  and  _349
REMARK  148  A    between atoms: _349  and  _350
REMARK  149  A    between atoms: _350  and  _351
REMARK  150  A    between atoms: _360  and  _362
REMARK  151  A    between atoms: _362  and  _363
REMARK  152  A    between atoms: _362  and  _365
REMARK  153  A    between atoms: _365  and  _366
REMARK  154  A    between atoms: _376  and  _378
REMARK  155  A    between atoms: _378  and  _379
REMARK  156  A    between atoms: _378  and  _381
REMARK  157  A    between atoms: _381  and  _382
REMARK  158  A    between atoms: _388  and  _390
REMARK  159  A    between atoms: _390  and  _391
REMARK  160  A    between atoms: _394  and  _396
REMARK  161  A    between atoms: _396  and  _397
REMARK  162  A    between atoms: _399  and  _401
REMARK  163  A    between atoms: _401  and  _402
REMARK  164  A    between atoms: _401  and  _404
REMARK  165  A    between atoms: _404  and  _405
REMARK  166  A    between atoms: _408  and  _410
REMARK  167  A    between atoms: _410  and  _411
REMARK  168  A    between atoms: _410  and  _413
REMARK  169  A    between atoms: _416  and  _418
REMARK  170  A    between atoms: _418  and  _419
REMARK  171  A    between atoms: _418  and  _421
REMARK  172  A    between atoms: _421  and  _422
REMARK  173  A    between atoms: _428  and  _430
REMARK  174  A    between atoms: _430  and  _431
REMARK  175  A    between atoms: _430  and  _433
REMARK  176  A    between atoms: _433  and  _434
REMARK  177  A    between atoms: _437  and  _439
REMARK  178  A    between atoms: _439  and  _440
REMARK  179  A    between atoms: _439  and  _442
REMARK  180  A    between atoms: _445  and  _447
REMARK  181  A    between atoms: _447  and  _448
REMARK  182  A    between atoms: _447  and  _450
REMARK  183  A    between atoms: _450  and  _451
REMARK  184  A    between atoms: _457  and  _458
REMARK  185  A    between atoms: _463  and  _465
REMARK  186  A    between atoms: _465  and  _466
REMARK  187  A    between atoms: _468  and  _470
REMARK  188  A    between atoms: _470  and  _471
REMARK  189  A    between atoms: _470  and  _473
REMARK  190  A    between atoms: _473  and  _474
REMARK  191  A    between atoms: _476  and  _478
REMARK  192  A    between atoms: _478  and  _479
REMARK  193  A    between atoms: _478  and  _481
REMARK  194  A    between atoms: _481  and  _482
REMARK  195  A    between atoms: _487  and  _489
REMARK  196  A    between atoms: _489  and  _490
REMARK  197  A    between atoms: _489  and  _492
REMARK  198  A    between atoms: _492  and  _493
REMARK  199  A    between atoms: _493  and  _494
REMARK  200  A    between atoms: _497  and  _499
REMARK  201  A    between atoms: _499  and  _500
REMARK  202  A    between atoms: _499  and  _502
REMARK  203  A    between atoms: _502  and  _503
REMARK  204  A    between atoms: _506  and  _508
REMARK  205  A    between atoms: _508  and  _509
REMARK  206  A    between atoms: _508  and  _511
REMARK  207  A    between atoms: _511  and  _512
REMARK  208  A    between atoms: _515  and  _517
REMARK  209  A    between atoms: _517  and  _518
REMARK  210  A    between atoms: _521  and  _523
REMARK  211  A    between atoms: _523  and  _524
REMARK  212  A    between atoms: _523  and  _526
REMARK  213  A    between atoms: _526  and  _527
REMARK  214  A    between atoms: _530  and  _532
REMARK  215  A    between atoms: _532  and  _533
REMARK  216  A    between atoms: _532  and  _535
REMARK  217  A    between atoms: _535  and  _536
REMARK  218  A    between atoms: _536  and  _537
REMARK  219  A    between atoms: _542  and  _544
REMARK  220  A    between atoms: _544  and  _545
REMARK  221  A    between atoms: _544  and  _547
REMARK  222  A    between atoms: _547  and  _548
REMARK  223  A    between atoms: _548  and  _549
REMARK  224  A    between atoms: _552  and  _554
REMARK  225  A    between atoms: _554  and  _555
REMARK  226  A    between atoms: _558  and  _560
REMARK  227  A    between atoms: _560  and  _561
REMARK  228  A    between atoms: _560  and  _563
REMARK  229  A    between atoms: _563  and  _564
REMARK  230  A    between atoms: _567  and  _569
REMARK  231  A    between atoms: _569  and  _570
REMARK  232  A    between atoms: _569  and  _572
REMARK  233  A    between atoms: _572  and  _573
REMARK  234  A    between atoms: _578  and  _580
REMARK  235  A    between atoms: _580  and  _581
REMARK  236  A    between atoms: _580  and  _583
REMARK  237  A    between atoms: _583  and  _584
REMARK  238  A    between atoms: _586  and  _588
REMARK  239  A    between atoms: _588  and  _589
REMARK  240  A    between atoms: _592  and  _594
REMARK  241  A    between atoms: _594  and  _595
REMARK  242  A    between atoms: _598  and  _600
REMARK  243  A    between atoms: _600  and  _601
REMARK  244  A    between atoms: _603  and  _605
REMARK  245  A    between atoms: _605  and  _606
REMARK  246  A    between atoms: _605  and  _608
REMARK  247  A    between atoms: _608  and  _609
REMARK  248  A    between atoms: _612  and  _614
REMARK  249  A    between atoms: _614  and  _615
REMARK  250  A    between atoms: _617  and  _619
REMARK  251  A    between atoms: _619  and  _620
REMARK  252  A    between atoms: _619  and  _622
REMARK  253  A    between atoms: _622  and  _623
REMARK  254  A    between atoms: _628  and  _630
REMARK  255  A    between atoms: _630  and  _631
REMARK  256  A    between atoms: _634  and  _636
REMARK  257  A    between atoms: _636  and  _637
REMARK  258  A    between atoms: _636  and  _639
REMARK  259  A    between atoms: _639  and  _640
REMARK  260  A    between atoms: _640  and  _641
REMARK  261  A    between atoms: _646  and  _648
REMARK  262  A    between atoms: _648  and  _649
REMARK  263  A    between atoms: _648  and  _651
REMARK  264  A    between atoms: _651  and  _652
REMARK  265  A    between atoms: _655  and  _657
REMARK  266  A    between atoms: _657  and  _658
REMARK  267  A    between atoms: _657  and  _660
REMARK  268  A    between atoms: _660  and  _661
REMARK                            x       y       z     vdW  Elec       q    Type
REMARK                         _______ _______ _______ _____ _____    ______ ____
ROOT
ATOM      1  O   HOH     1     117.292  42.973 100.223  0.00  0.00    +0.000 OA
ENDROOT
TORSDOF 0
REMARK  Name = ../refined-set-2016/3fzn/3fzn_pocket.pdb
REMARK  268 active torsions:
REMARK  status: ('A' for Active; 'I' for Inactive)
REMARK    1  A    between atoms: _1  and  _3
REMARK    2  A    between atoms: _3  and  _4
REMARK    3  A    between atoms: _6  and  _8
REMARK    4  A    between atoms: _8  and  _9
REMARK    5  A    between atoms: _8  and  _11
REMARK    6  A    between atoms: _11  and  _12
REMARK    7  A    between atoms: _17  and  _19
REMARK    8  A    between atoms: _19  and  _20
REMARK    9  A    between atoms: _19  and  _22
REMARK   10  A    between atoms: _22  and  _23
REMARK   11  A    between atoms: _25  and  _27
REMARK   12  A    between atoms: _27  and  _28
REMARK   13  A    between atoms: _27  and  _30
REMARK   14  A    between atoms: _30  and  _31
REMARK   15  A    between atoms: _36  and  _38
REMARK   16  A    between atoms: _38  and  _39
REMARK   17  A    between atoms: _38  and  _41
REMARK   18  A    between atoms: _41  and  _42
REMARK   19  A    between atoms: _42  and  _43
REMARK   20  A    between atoms: _49  and  _50
REMARK   21  A    between atoms: _55  and  _57
REMARK   22  A    between atoms: _57  and  _58
REMARK   23  A    between atoms: _57  and  _60
REMARK   24  A    between atoms: _60  and  _61
REMARK   25  A    between atoms: _66  and  _68
REMARK   26  A    between atoms: _68  and  _69
REMARK   27  A    between atoms: _68  and  _71
REMARK   28  A    between atoms: _71  and  _72
REMARK   29  A    between atoms: _72  and  _73
REMARK   30  A    between atoms: _76  and  _78
REMARK   31  A    between atoms: _78  and  _79
REMARK   32  A    between atoms: _78  and  _81
REMARK   33  A    between atoms: _81  and  _82
REMARK   34  A    between atoms: _84  and  _86
REMARK   35  A    between atoms: _86  and  _87
REMARK   36  A    between atoms: _86  and  _89
REMARK   37  A    between atoms: _89  and  _90
REMARK   38  A    between atoms: _93  and  _95
REMARK   39  A    between atoms: _95  and  _96
REMARK   40  A    between atoms: _95  and  _98
REMARK   41  A    between atoms: _98  and  _99
REMARK   42  A    between atoms: _101  and  _103
REMARK   43  A    between atoms: _103  and  _104
REMARK   44  A    between atoms: _103  and  _106
REMARK   45  A    between atoms: _106  and  _107
REMARK   46  A    between atoms: _110  and  _112
REMARK   47  A    between atoms: _112  and  _113
REMARK   48  A    between atoms: _112  and  _115
REMARK   49  A    between atoms: _115  and  _116
REMARK   50  A    between atoms: _119  and  _121
REMARK   51  A    between atoms: _121  and  _122
REMARK   52  A    between atoms: _121  and  _124
REMARK   53  A    between atoms: _124  and  _125
REMARK   54  A    between atoms: _131  and  _133
REMARK   55  A    between atoms: _133  and  _134
REMARK   56  A    between atoms: _133  and  _136
REMARK   57  A    between atoms: _138  and  _140
REMARK   58  A    between atoms: _140  and  _141
REMARK   59  A    between atoms: _144  and  _146
REMARK   60  A    between atoms: _146  and  _147
REMARK   61  A    between atoms: _149  and  _151
REMARK   62  A    between atoms: _151  and  _152
REMARK   63  A    between atoms: _154  and  _156
REMARK   64  A    between atoms: _156  and  _157
REMARK   65  A    between atoms: _156  and  _159
REMARK   66  A    between atoms: _159  and  _160
REMARK   67  A    between atoms: _163  and  _165
REMARK   68  A    between atoms: _165  and  _166
REMARK   69  A    between atoms: _168  and  _170
REMARK   70  A    between atoms: _170  and  _171
REMARK   71  A    between atoms: _170  and  _173
REMARK   72  A    between atoms: _173  and  _174
REMARK   73  A    between atoms: _180  and  _182
REMARK   74  A    between atoms: _182  and  _183
REMARK   75  A    between atoms: _182  and  _185
REMARK   76  A    between atoms: _188  and  _190
REMARK   77  A    between atoms: _190  and  _191
REMARK   78  A    between atoms: _190  and  _193
REMARK   79  A    between atoms: _193  and  _194
REMARK   80  A    between atoms: _197  and  _199
REMARK   81  A    between atoms: _199  and  _200
REMARK   82  A    between atoms: _202  and  _204
REMARK   83  A    between atoms: _204  and  _205
REMARK   84  A    between atoms: _204  and  _207
REMARK   85  A    between atoms: _207  and  _208
REMARK   86  A    between atoms: _208  and  _209
REMARK   87  A    between atoms: _209  and  MG_664
REMARK   88  A    between atoms: _211  and  _213
REMARK   89  A    between atoms: _213  and  _214
REMARK   90  A    between atoms: _216  and  _218
REMARK   91  A    between atoms: _218  and  _219
REMARK   92  A    between atoms: _218  and  _221
REMARK   93  A    between atoms: _221  and  _222
REMARK   94  A    between atoms: _224  and  _226
REMARK   95  A    between atoms: _226  and  _227
REMARK   96  A    between atoms: _230  and  _232
REMARK   97  A    between atoms: _232  and  _233
REMARK   98  A    between atoms: _232  and  _235
REMARK   99  A    between atoms: _235  and  _236
REMARK  100  A    between atoms: _241  and  _243
REMARK  101  A    between atoms: _243  and  _244
REMARK  102  A    between atoms: _243  and  _246
REMARK  103  A    between atoms: _246  and  _247
REMARK  104  A    between atoms: _252  and  _253
REMARK  105  A    between atoms: _255  and  _257
REMARK  106  A    between atoms: _257  and  _258
REMARK  107  A    between atoms: _257  and  _260
REMARK  108  A    between atoms: _260  and  _261
REMARK  109  A    between atoms: _264  and  _266
REMARK  110  A    between atoms: _266  and  _267
REMARK  111  A    between atoms: _266  and  _269
REMARK  112  A    between atoms: _269  and  _270
REMARK  113  A    between atoms: _270  and  _271
REMARK  114  A    between atoms: _273  and  _275
REMARK  115  A    between atoms: _275  and  _276
REMARK  116  A    between atoms: _275  and  _278
REMARK  117  A    between atoms: _278  and  _279
REMARK  118  A    between atoms: _284  and  _286
REMARK  119  A    between atoms: _286  and  _287
REMARK  120  A    between atoms: _286  and  _289
REMARK  121  A    between atoms: _289  and  _290
REMARK  122  A    between atoms: _290  and  _291
REMARK  123  A    between atoms: _290  and  _292
REMARK  124  A    between atoms: _291  and  MG_664
REMARK  125  A    between atoms: _295  and  _297
REMARK  126  A    between atoms: _297  and  _298
REMARK  127  A    between atoms: _300  and  _302
REMARK  128  A    between atoms: _302  and  _303
REMARK  129  A    between atoms: _302  and  _305
REMARK  130  A    between atoms: _305  and  _306
REMARK  131  A    between atoms: _309  and  _311
REMARK  132  A    between atoms: _311  and  _312
REMARK  133  A    between atoms: _311  and  _314
REMARK  134  A    between atoms: _314  and  _315
REMARK  135  A    between atoms: _320  and  _321
REMARK  136  A    between atoms: _323  and  _325
REMARK  137  A    between atoms: _325  and  _326
REMARK  138  A    between atoms: _328  and  _330
REMARK  139  A    between atoms: _330  and  _331
REMARK  140  A    between atoms: _334  and  _336
REMARK  141  A    between atoms: _336  and  _337
REMARK  142  A    between atoms: _336  and  _339
REMARK  143  A    between atoms: _339  and  _340
REMARK  144  A    between atoms: _343  and  _345
REMARK  145  A    between atoms: _345  and  _346
REMARK  146  A    between atoms: _345  and  _348
REMARK  147  A    between atoms: _348  and  _349
REMARK  148  A    between atoms: _349  and  _350
REMARK  149  A    between atoms: _350  and  _351
REMARK  150  A    between atoms: _360  and  _362
REMARK  151  A    between atoms: _362  and  _363
REMARK  152  A    between atoms: _362  and  _365
REMARK  153  A    between atoms: _365  and  _366
REMARK  154  A    between atoms: _376  and  _378
REMARK  155  A    between atoms: _378  and  _379
REMARK  156  A    between atoms: _378  and  _381
REMARK  157  A    between atoms: _381  and  _382
REMARK  158  A    between atoms: _388  and  _390
REMARK  159  A    between atoms: _390  and  _391
REMARK  160  A    between atoms: _394  and  _396
REMARK  161  A    between atoms: _396  and  _397
REMARK  162  A    between atoms: _399  and  _401
REMARK  163  A    between atoms: _401  and  _402
REMARK  164  A    between atoms: _401  and  _404
REMARK  165  A    between atoms: _404  and  _405
REMARK  166  A    between atoms: _408  and  _410
REMARK  167  A    between atoms: _410  and  _411
REMARK  168  A    between atoms: _410  and  _413
REMARK  169  A    between atoms: _416  and  _418
REMARK  170  A    between atoms: _418  and  _419
REMARK  171  A    between atoms: _418  and  _421
REMARK  172  A    between atoms: _421  and  _422
REMARK  173  A    between atoms: _428  and  _430
REMARK  174  A    between atoms: _430  and  _431
REMARK  175  A    between atoms: _430  and  _433
REMARK  176  A    between atoms: _433  and  _434
REMARK  177  A    between atoms: _437  and  _439
REMARK  178  A    between atoms: _439  and  _440
REMARK  179  A    between atoms: _439  and  _442
REMARK  180  A    between atoms: _445  and  _447
REMARK  181  A    between atoms: _447  and  _448
REMARK  182  A    between atoms: _447  and  _450
REMARK  183  A    between atoms: _450  and  _451
REMARK  184  A    between atoms: _457  and  _458
REMARK  185  A    between atoms: _463  and  _465
REMARK  186  A    between atoms: _465  and  _466
REMARK  187  A    between atoms: _468  and  _470
REMARK  188  A    between atoms: _470  and  _471
REMARK  189  A    between atoms: _470  and  _473
REMARK  190  A    between atoms: _473  and  _474
REMARK  191  A    between atoms: _476  and  _478
REMARK  192  A    between atoms: _478  and  _479
REMARK  193  A    between atoms: _478  and  _481
REMARK  194  A    between atoms: _481  and  _482
REMARK  195  A    between atoms: _487  and  _489
REMARK  196  A    between atoms: _489  and  _490
REMARK  197  A    between atoms: _489  and  _492
REMARK  198  A    between atoms: _492  and  _493
REMARK  199  A    between atoms: _493  and  _494
REMARK  200  A    between atoms: _497  and  _499
REMARK  201  A    between atoms: _499  and  _500
REMARK  202  A    between atoms: _499  and  _502
REMARK  203  A    between atoms: _502  and  _503
REMARK  204  A    between atoms: _506  and  _508
REMARK  205  A    between atoms: _508  and  _509
REMARK  206  A    between atoms: _508  and  _511
REMARK  207  A    between atoms: _511  and  _512
REMARK  208  A    between atoms: _515  and  _517
REMARK  209  A    between atoms: _517  and  _518
REMARK  210  A    between atoms: _521  and  _523
REMARK  211  A    between atoms: _523  and  _524
REMARK  212  A    between atoms: _523  and  _526
REMARK  213  A    between atoms: _526  and  _527
REMARK  214  A    between atoms: _530  and  _532
REMARK  215  A    between atoms: _532  and  _533
REMARK  216  A    between atoms: _532  and  _535
REMARK  217  A    between atoms: _535  and  _536
REMARK  218  A    between atoms: _536  and  _537
REMARK  219  A    between atoms: _542  and  _544
REMARK  220  A    between atoms: _544  and  _545
REMARK  221  A    between atoms: _544  and  _547
REMARK  222  A    between atoms: _547  and  _548
REMARK  223  A    between atoms: _548  and  _549
REMARK  224  A    between atoms: _552  and  _554
REMARK  225  A    between atoms: _554  and  _555
REMARK  226  A    between atoms: _558  and  _560
REMARK  227  A    between atoms: _560  and  _561
REMARK  228  A    between atoms: _560  and  _563
REMARK  229  A    between atoms: _563  and  _564
REMARK  230  A    between atoms: _567  and  _569
REMARK  231  A    between atoms: _569  and  _570
REMARK  232  A    between atoms: _569  and  _572
REMARK  233  A    between atoms: _572  and  _573
REMARK  234  A    between atoms: _578  and  _580
REMARK  235  A    between atoms: _580  and  _581
REMARK  236  A    between atoms: _580  and  _583
REMARK  237  A    between atoms: _583  and  _584
REMARK  238  A    between atoms: _586  and  _588
REMARK  239  A    between atoms: _588  and  _589
REMARK  240  A    between atoms: _592  and  _594
REMARK  241  A    between atoms: _594  and  _595
REMARK  242  A    between atoms: _598  and  _600
REMARK  243  A    between atoms: _600  and  _601
REMARK  244  A    between atoms: _603  and  _605
REMARK  245  A    between atoms: _605  and  _606
REMARK  246  A    between atoms: _605  and  _608
REMARK  247  A    between atoms: _608  and  _609
REMARK  248  A    between atoms: _612  and  _614
REMARK  249  A    between atoms: _614  and  _615
REMARK  250  A    between atoms: _617  and  _619
REMARK  251  A    between atoms: _619  and  _620
REMARK  252  A    between atoms: _619  and  _622
REMARK  253  A    between atoms: _622  and  _623
REMARK  254  A    between atoms: _628  and  _630
REMARK  255  A    between atoms: _630  and  _631
REMARK  256  A    between atoms: _634  and  _636
REMARK  257  A    between atoms: _636  and  _637
REMARK  258  A    between atoms: _636  and  _639
REMARK  259  A    between atoms: _639  and  _640
REMARK  260  A    between atoms: _640  and  _641
REMARK  261  A    between atoms: _646  and  _648
REMARK  262  A    between atoms: _648  and  _649
REMARK  263  A    between atoms: _648  and  _651
REMARK  264  A    between atoms: _651  and  _652
REMARK  265  A    between atoms: _655  and  _657
REMARK  266  A    between atoms: _657  and  _658
REMARK  267  A    between atoms: _657  and  _660
REMARK  268  A    between atoms: _660  and  _661
REMARK                            x       y       z     vdW  Elec       q    Type
REMARK                         _______ _______ _______ _____ _____    ______ ____
ROOT
ATOM      1  O   HOH     1     111.308  38.157  86.591  0.00  0.00    +0.000 OA
ENDROOT
TORSDOF 0
REMARK  Name = ../refined-set-2016/3fzn/3fzn_pocket.pdb
REMARK  268 active torsions:
REMARK  status: ('A' for Active; 'I' for Inactive)
REMARK    1  A    between atoms: _1  and  _3
REMARK    2  A    between atoms: _3  and  _4
REMARK    3  A    between atoms: _6  and  _8
REMARK    4  A    between atoms: _8  and  _9
REMARK    5  A    between atoms: _8  and  _11
REMARK    6  A    between atoms: _11  and  _12
REMARK    7  A    between atoms: _17  and  _19
REMARK    8  A    between atoms: _19  and  _20
REMARK    9  A    between atoms: _19  and  _22
REMARK   10  A    between atoms: _22  and  _23
REMARK   11  A    between atoms: _25  and  _27
REMARK   12  A    between atoms: _27  and  _28
REMARK   13  A    between atoms: _27  and  _30
REMARK   14  A    between atoms: _30  and  _31
REMARK   15  A    between atoms: _36  and  _38
REMARK   16  A    between atoms: _38  and  _39
REMARK   17  A    between atoms: _38  and  _41
REMARK   18  A    between atoms: _41  and  _42
REMARK   19  A    between atoms: _42  and  _43
REMARK   20  A    between atoms: _49  and  _50
REMARK   21  A    between atoms: _55  and  _57
REMARK   22  A    between atoms: _57  and  _58
REMARK   23  A    between atoms: _57  and  _60
REMARK   24  A    between atoms: _60  and  _61
REMARK   25  A    between atoms: _66  and  _68
REMARK   26  A    between atoms: _68  and  _69
REMARK   27  A    between atoms: _68  and  _71
REMARK   28  A    between atoms: _71  and  _72
REMARK   29  A    between atoms: _72  and  _73
REMARK   30  A    between atoms: _76  and  _78
REMARK   31  A    between atoms: _78  and  _79
REMARK   32  A    between atoms: _78  and  _81
REMARK   33  A    between atoms: _81  and  _82
REMARK   34  A    between atoms: _84  and  _86
REMARK   35  A    between atoms: _86  and  _87
REMARK   36  A    between atoms: _86  and  _89
REMARK   37  A    between atoms: _89  and  _90
REMARK   38  A    between atoms: _93  and  _95
REMARK   39  A    between atoms: _95  and  _96
REMARK   40  A    between atoms: _95  and  _98
REMARK   41  A    between atoms: _98  and  _99
REMARK   42  A    between atoms: _101  and  _103
REMARK   43  A    between atoms: _103  and  _104
REMARK   44  A    between atoms: _103  and  _106
REMARK   45  A    between atoms: _106  and  _107
REMARK   46  A    between atoms: _110  and  _112
REMARK   47  A    between atoms: _112  and  _113
REMARK   48  A    between atoms: _112  and  _115
REMARK   49  A    between atoms: _115  and  _116
REMARK   50  A    between atoms: _119  and  _121
REMARK   51  A    between atoms: _121  and  _122
REMARK   52  A    between atoms: _121  and  _124
REMARK   53  A    between atoms: _124  and  _125
REMARK   54  A    between atoms: _131  and  _133
REMARK   55  A    between atoms: _133  and  _134
REMARK   56  A    between atoms: _133  and  _136
REMARK   57  A    between atoms: _138  and  _140
REMARK   58  A    between atoms: _140  and  _141
REMARK   59  A    between atoms: _144  and  _146
REMARK   60  A    between atoms: _146  and  _147
REMARK   61  A    between atoms: _149  and  _151
REMARK   62  A    between atoms: _151  and  _152
REMARK   63  A    between atoms: _154  and  _156
REMARK   64  A    between atoms: _156  and  _157
REMARK   65  A    between atoms: _156  and  _159
REMARK   66  A    between atoms: _159  and  _160
REMARK   67  A    between atoms: _163  and  _165
REMARK   68  A    between atoms: _165  and  _166
REMARK   69  A    between atoms: _168  and  _170
REMARK   70  A    between atoms: _170  and  _171
REMARK   71  A    between atoms: _170  and  _173
REMARK   72  A    between atoms: _173  and  _174
REMARK   73  A    between atoms: _180  and  _182
REMARK   74  A    between atoms: _182  and  _183
REMARK   75  A    between atoms: _182  and  _185
REMARK   76  A    between atoms: _188  and  _190
REMARK   77  A    between atoms: _190  and  _191
REMARK   78  A    between atoms: _190  and  _193
REMARK   79  A    between atoms: _193  and  _194
REMARK   80  A    between atoms: _197  and  _199
REMARK   81  A    between atoms: _199  and  _200
REMARK   82  A    between atoms: _202  and  _204
REMARK   83  A    between atoms: _204  and  _205
REMARK   84  A    between atoms: _204  and  _207
REMARK   85  A    between atoms: _207  and  _208
REMARK   86  A    between atoms: _208  and  _209
REMARK   87  A    between atoms: _209  and  MG_664
REMARK   88  A    between atoms: _211  and  _213
REMARK   89  A    between atoms: _213  and  _214
REMARK   90  A    between atoms: _216  and  _218
REMARK   91  A    between atoms: _218  and  _219
REMARK   92  A    between atoms: _218  and  _221
REMARK   93  A    between atoms: _221  and  _222
REMARK   94  A    between atoms: _224  and  _226
REMARK   95  A    between atoms: _226  and  _227
REMARK   96  A    between atoms: _230  and  _232
REMARK   97  A    between atoms: _232  and  _233
REMARK   98  A    between atoms: _232  and  _235
REMARK   99  A    between atoms: _235  and  _236
REMARK  100  A    between atoms: _241  and  _243
REMARK  101  A    between atoms: _243  and  _244
REMARK  102  A    between atoms: _243  and  _246
REMARK  103  A    between atoms: _246  and  _247
REMARK  104  A    between atoms: _252  and  _253
REMARK  105  A    between atoms: _255  and  _257
REMARK  106  A    between atoms: _257  and  _258
REMARK  107  A    between atoms: _257  and  _260
REMARK  108  A    between atoms: _260  and  _261
REMARK  109  A    between atoms: _264  and  _266
REMARK  110  A    between atoms: _266  and  _267
REMARK  111  A    between atoms: _266  and  _269
REMARK  112  A    between atoms: _269  and  _270
REMARK  113  A    between atoms: _270  and  _271
REMARK  114  A    between atoms: _273  and  _275
REMARK  115  A    between atoms: _275  and  _276
REMARK  116  A    between atoms: _275  and  _278
REMARK  117  A    between atoms: _278  and  _279
REMARK  118  A    between atoms: _284  and  _286
REMARK  119  A    between atoms: _286  and  _287
REMARK  120  A    between atoms: _286  and  _289
REMARK  121  A    between atoms: _289  and  _290
REMARK  122  A    between atoms: _290  and  _291
REMARK  123  A    between atoms: _290  and  _292
REMARK  124  A    between atoms: _291  and  MG_664
REMARK  125  A    between atoms: _295  and  _297
REMARK  126  A    between atoms: _297  and  _298
REMARK  127  A    between atoms: _300  and  _302
REMARK  128  A    between atoms: _302  and  _303
REMARK  129  A    between atoms: _302  and  _305
REMARK  130  A    between atoms: _305  and  _306
REMARK  131  A    between atoms: _309  and  _311
REMARK  132  A    between atoms: _311  and  _312
REMARK  133  A    between atoms: _311  and  _314
REMARK  134  A    between atoms: _314  and  _315
REMARK  135  A    between atoms: _320  and  _321
REMARK  136  A    between atoms: _323  and  _325
REMARK  137  A    between atoms: _325  and  _326
REMARK  138  A    between atoms: _328  and  _330
REMARK  139  A    between atoms: _330  and  _331
REMARK  140  A    between atoms: _334  and  _336
REMARK  141  A    between atoms: _336  and  _337
REMARK  142  A    between atoms: _336  and  _339
REMARK  143  A    between atoms: _339  and  _340
REMARK  144  A    between atoms: _343  and  _345
REMARK  145  A    between atoms: _345  and  _346
REMARK  146  A    between atoms: _345  and  _348
REMARK  147  A    between atoms: _348  and  _349
REMARK  148  A    between atoms: _349  and  _350
REMARK  149  A    between atoms: _350  and  _351
REMARK  150  A    between atoms: _360  and  _362
REMARK  151  A    between atoms: _362  and  _363
REMARK  152  A    between atoms: _362  and  _365
REMARK  153  A    between atoms: _365  and  _366
REMARK  154  A    between atoms: _376  and  _378
REMARK  155  A    between atoms: _378  and  _379
REMARK  156  A    between atoms: _378  and  _381
REMARK  157  A    between atoms: _381  and  _382
REMARK  158  A    between atoms: _388  and  _390
REMARK  159  A    between atoms: _390  and  _391
REMARK  160  A    between atoms: _394  and  _396
REMARK  161  A    between atoms: _396  and  _397
REMARK  162  A    between atoms: _399  and  _401
REMARK  163  A    between atoms: _401  and  _402
REMARK  164  A    between atoms: _401  and  _404
REMARK  165  A    between atoms: _404  and  _405
REMARK  166  A    between atoms: _408  and  _410
REMARK  167  A    between atoms: _410  and  _411
REMARK  168  A    between atoms: _410  and  _413
REMARK  169  A    between atoms: _416  and  _418
REMARK  170  A    between atoms: _418  and  _419
REMARK  171  A    between atoms: _418  and  _421
REMARK  172  A    between atoms: _421  and  _422
REMARK  173  A    between atoms: _428  and  _430
REMARK  174  A    between atoms: _430  and  _431
REMARK  175  A    between atoms: _430  and  _433
REMARK  176  A    between atoms: _433  and  _434
REMARK  177  A    between atoms: _437  and  _439
REMARK  178  A    between atoms: _439  and  _440
REMARK  179  A    between atoms: _439  and  _442
REMARK  180  A    between atoms: _445  and  _447
REMARK  181  A    between atoms: _447  and  _448
REMARK  182  A    between atoms: _447  and  _450
REMARK  183  A    between atoms: _450  and  _451
REMARK  184  A    between atoms: _457  and  _458
REMARK  185  A    between atoms: _463  and  _465
REMARK  186  A    between atoms: _465  and  _466
REMARK  187  A    between atoms: _468  and  _470
REMARK  188  A    between atoms: _470  and  _471
REMARK  189  A    between atoms: _470  and  _473
REMARK  190  A    between atoms: _473  and  _474
REMARK  191  A    between atoms: _476  and  _478
REMARK  192  A    between atoms: _478  and  _479
REMARK  193  A    between atoms: _478  and  _481
REMARK  194  A    between atoms: _481  and  _482
REMARK  195  A    between atoms: _487  and  _489
REMARK  196  A    between atoms: _489  and  _490
REMARK  197  A    between atoms: _489  and  _492
REMARK  198  A    between atoms: _492  and  _493
REMARK  199  A    between atoms: _493  and  _494
REMARK  200  A    between atoms: _497  and  _499
REMARK  201  A    between atoms: _499  and  _500
REMARK  202  A    between atoms: _499  and  _502
REMARK  203  A    between atoms: _502  and  _503
REMARK  204  A    between atoms: _506  and  _508
REMARK  205  A    between atoms: _508  and  _509
REMARK  206  A    between atoms: _508  and  _511
REMARK  207  A    between atoms: _511  and  _512
REMARK  208  A    between atoms: _515  and  _517
REMARK  209  A    between atoms: _517  and  _518
REMARK  210  A    between atoms: _521  and  _523
REMARK  211  A    between atoms: _523  and  _524
REMARK  212  A    between atoms: _523  and  _526
REMARK  213  A    between atoms: _526  and  _527
REMARK  214  A    between atoms: _530  and  _532
REMARK  215  A    between atoms: _532  and  _533
REMARK  216  A    between atoms: _532  and  _535
REMARK  217  A    between atoms: _535  and  _536
REMARK  218  A    between atoms: _536  and  _537
REMARK  219  A    between atoms: _542  and  _544
REMARK  220  A    between atoms: _544  and  _545
REMARK  221  A    between atoms: _544  and  _547
REMARK  222  A    between atoms: _547  and  _548
REMARK  223  A    between atoms: _548  and  _549
REMARK  224  A    between atoms: _552  and  _554
REMARK  225  A    between atoms: _554  and  _555
REMARK  226  A    between atoms: _558  and  _560
REMARK  227  A    between atoms: _560  and  _561
REMARK  228  A    between atoms: _560  and  _563
REMARK  229  A    between atoms: _563  and  _564
REMARK  230  A    between atoms: _567  and  _569
REMARK  231  A    between atoms: _569  and  _570
REMARK  232  A    between atoms: _569  and  _572
REMARK  233  A    between atoms: _572  and  _573
REMARK  234  A    between atoms: _578  and  _580
REMARK  235  A    between atoms: _580  and  _581
REMARK  236  A    between atoms: _580  and  _583
REMARK  237  A    between atoms: _583  and  _584
REMARK  238  A    between atoms: _586  and  _588
REMARK  239  A    between atoms: _588  and  _589
REMARK  240  A    between atoms: _592  and  _594
REMARK  241  A    between atoms: _594  and  _595
REMARK  242  A    between atoms: _598  and  _600
REMARK  243  A    between atoms: _600  and  _601
REMARK  244  A    between atoms: _603  and  _605
REMARK  245  A    between atoms: _605  and  _606
REMARK  246  A    between atoms: _605  and  _608
REMARK  247  A    between atoms: _608  and  _609
REMARK  248  A    between atoms: _612  and  _614
REMARK  249  A    between atoms: _614  and  _615
REMARK  250  A    between atoms: _617  and  _619
REMARK  251  A    between atoms: _619  and  _620
REMARK  252  A    between atoms: _619  and  _622
REMARK  253  A    between atoms: _622  and  _623
REMARK  254  A    between atoms: _628  and  _630
REMARK  255  A    between atoms: _630  and  _631
REMARK  256  A    between atoms: _634  and  _636
REMARK  257  A    between atoms: _636  and  _637
REMARK  258  A    between atoms: _636  and  _639
REMARK  259  A    between atoms: _639  and  _640
REMARK  260  A    between atoms: _640  and  _641
REMARK  261  A    between atoms: _646  and  _648
REMARK  262  A    between atoms: _648  and  _649
REMARK  263  A    between atoms: _648  and  _651
REMARK  264  A    between atoms: _651  and  _652
REMARK  265  A    between atoms: _655  and  _657
REMARK  266  A    between atoms: _657  and  _658
REMARK  267  A    between atoms: _657  and  _660
REMARK  268  A    between atoms: _660  and  _661
REMARK                            x       y       z     vdW  Elec       q    Type
REMARK                         _______ _______ _______ _____ _____    ______ ____
ROOT
ATOM      1  O   HOH     1     102.521  52.953  94.712  0.00  0.00    +0.000 OA
ENDROOT
TORSDOF 0
REMARK  Name = ../refined-set-2016/3fzn/3fzn_pocket.pdb
REMARK  268 active torsions:
REMARK  status: ('A' for Active; 'I' for Inactive)
REMARK    1  A    between atoms: _1  and  _3
REMARK    2  A    between atoms: _3  and  _4
REMARK    3  A    between atoms: _6  and  _8
REMARK    4  A    between atoms: _8  and  _9
REMARK    5  A    between atoms: _8  and  _11
REMARK    6  A    between atoms: _11  and  _12
REMARK    7  A    between atoms: _17  and  _19
REMARK    8  A    between atoms: _19  and  _20
REMARK    9  A    between atoms: _19  and  _22
REMARK   10  A    between atoms: _22  and  _23
REMARK   11  A    between atoms: _25  and  _27
REMARK   12  A    between atoms: _27  and  _28
REMARK   13  A    between atoms: _27  and  _30
REMARK   14  A    between atoms: _30  and  _31
REMARK   15  A    between atoms: _36  and  _38
REMARK   16  A    between atoms: _38  and  _39
REMARK   17  A    between atoms: _38  and  _41
REMARK   18  A    between atoms: _41  and  _42
REMARK   19  A    between atoms: _42  and  _43
REMARK   20  A    between atoms: _49  and  _50
REMARK   21  A    between atoms: _55  and  _57
REMARK   22  A    between atoms: _57  and  _58
REMARK   23  A    between atoms: _57  and  _60
REMARK   24  A    between atoms: _60  and  _61
REMARK   25  A    between atoms: _66  and  _68
REMARK   26  A    between atoms: _68  and  _69
REMARK   27  A    between atoms: _68  and  _71
REMARK   28  A    between atoms: _71  and  _72
REMARK   29  A    between atoms: _72  and  _73
REMARK   30  A    between atoms: _76  and  _78
REMARK   31  A    between atoms: _78  and  _79
REMARK   32  A    between atoms: _78  and  _81
REMARK   33  A    between atoms: _81  and  _82
REMARK   34  A    between atoms: _84  and  _86
REMARK   35  A    between atoms: _86  and  _87
REMARK   36  A    between atoms: _86  and  _89
REMARK   37  A    between atoms: _89  and  _90
REMARK   38  A    between atoms: _93  and  _95
REMARK   39  A    between atoms: _95  and  _96
REMARK   40  A    between atoms: _95  and  _98
REMARK   41  A    between atoms: _98  and  _99
REMARK   42  A    between atoms: _101  and  _103
REMARK   43  A    between atoms: _103  and  _104
REMARK   44  A    between atoms: _103  and  _106
REMARK   45  A    between atoms: _106  and  _107
REMARK   46  A    between atoms: _110  and  _112
REMARK   47  A    between atoms: _112  and  _113
REMARK   48  A    between atoms: _112  and  _115
REMARK   49  A    between atoms: _115  and  _116
REMARK   50  A    between atoms: _119  and  _121
REMARK   51  A    between atoms: _121  and  _122
REMARK   52  A    between atoms: _121  and  _124
REMARK   53  A    between atoms: _124  and  _125
REMARK   54  A    between atoms: _131  and  _133
REMARK   55  A    between atoms: _133  and  _134
REMARK   56  A    between atoms: _133  and  _136
REMARK   57  A    between atoms: _138  and  _140
REMARK   58  A    between atoms: _140  and  _141
REMARK   59  A    between atoms: _144  and  _146
REMARK   60  A    between atoms: _146  and  _147
REMARK   61  A    between atoms: _149  and  _151
REMARK   62  A    between atoms: _151  and  _152
REMARK   63  A    between atoms: _154  and  _156
REMARK   64  A    between atoms: _156  and  _157
REMARK   65  A    between atoms: _156  and  _159
REMARK   66  A    between atoms: _159  and  _160
REMARK   67  A    between atoms: _163  and  _165
REMARK   68  A    between atoms: _165  and  _166
REMARK   69  A    between atoms: _168  and  _170
REMARK   70  A    between atoms: _170  and  _171
REMARK   71  A    between atoms: _170  and  _173
REMARK   72  A    between atoms: _173  and  _174
REMARK   73  A    between atoms: _180  and  _182
REMARK   74  A    between atoms: _182  and  _183
REMARK   75  A    between atoms: _182  and  _185
REMARK   76  A    between atoms: _188  and  _190
REMARK   77  A    between atoms: _190  and  _191
REMARK   78  A    between atoms: _190  and  _193
REMARK   79  A    between atoms: _193  and  _194
REMARK   80  A    between atoms: _197  and  _199
REMARK   81  A    between atoms: _199  and  _200
REMARK   82  A    between atoms: _202  and  _204
REMARK   83  A    between atoms: _204  and  _205
REMARK   84  A    between atoms: _204  and  _207
REMARK   85  A    between atoms: _207  and  _208
REMARK   86  A    between atoms: _208  and  _209
REMARK   87  A    between atoms: _209  and  MG_664
REMARK   88  A    between atoms: _211  and  _213
REMARK   89  A    between atoms: _213  and  _214
REMARK   90  A    between atoms: _216  and  _218
REMARK   91  A    between atoms: _218  and  _219
REMARK   92  A    between atoms: _218  and  _221
REMARK   93  A    between atoms: _221  and  _222
REMARK   94  A    between atoms: _224  and  _226
REMARK   95  A    between atoms: _226  and  _227
REMARK   96  A    between atoms: _230  and  _232
REMARK   97  A    between atoms: _232  and  _233
REMARK   98  A    between atoms: _232  and  _235
REMARK   99  A    between atoms: _235  and  _236
REMARK  100  A    between atoms: _241  and  _243
REMARK  101  A    between atoms: _243  and  _244
REMARK  102  A    between atoms: _243  and  _246
REMARK  103  A    between atoms: _246  and  _247
REMARK  104  A    between atoms: _252  and  _253
REMARK  105  A    between atoms: _255  and  _257
REMARK  106  A    between atoms: _257  and  _258
REMARK  107  A    between atoms: _257  and  _260
REMARK  108  A    between atoms: _260  and  _261
REMARK  109  A    between atoms: _264  and  _266
REMARK  110  A    between atoms: _266  and  _267
REMARK  111  A    between atoms: _266  and  _269
REMARK  112  A    between atoms: _269  and  _270
REMARK  113  A    between atoms: _270  and  _271
REMARK  114  A    between atoms: _273  and  _275
REMARK  115  A    between atoms: _275  and  _276
REMARK  116  A    between atoms: _275  and  _278
REMARK  117  A    between atoms: _278  and  _279
REMARK  118  A    between atoms: _284  and  _286
REMARK  119  A    between atoms: _286  and  _287
REMARK  120  A    between atoms: _286  and  _289
REMARK  121  A    between atoms: _289  and  _290
REMARK  122  A    between atoms: _290  and  _291
REMARK  123  A    between atoms: _290  and  _292
REMARK  124  A    between atoms: _291  and  MG_664
REMARK  125  A    between atoms: _295  and  _297
REMARK  126  A    between atoms: _297  and  _298
REMARK  127  A    between atoms: _300  and  _302
REMARK  128  A    between atoms: _302  and  _303
REMARK  129  A    between atoms: _302  and  _305
REMARK  130  A    between atoms: _305  and  _306
REMARK  131  A    between atoms: _309  and  _311
REMARK  132  A    between atoms: _311  and  _312
REMARK  133  A    between atoms: _311  and  _314
REMARK  134  A    between atoms: _314  and  _315
REMARK  135  A    between atoms: _320  and  _321
REMARK  136  A    between atoms: _323  and  _325
REMARK  137  A    between atoms: _325  and  _326
REMARK  138  A    between atoms: _328  and  _330
REMARK  139  A    between atoms: _330  and  _331
REMARK  140  A    between atoms: _334  and  _336
REMARK  141  A    between atoms: _336  and  _337
REMARK  142  A    between atoms: _336  and  _339
REMARK  143  A    between atoms: _339  and  _340
REMARK  144  A    between atoms: _343  and  _345
REMARK  145  A    between atoms: _345  and  _346
REMARK  146  A    between atoms: _345  and  _348
REMARK  147  A    between atoms: _348  and  _349
REMARK  148  A    between atoms: _349  and  _350
REMARK  149  A    between atoms: _350  and  _351
REMARK  150  A    between atoms: _360  and  _362
REMARK  151  A    between atoms: _362  and  _363
REMARK  152  A    between atoms: _362  and  _365
REMARK  153  A    between atoms: _365  and  _366
REMARK  154  A    between atoms: _376  and  _378
REMARK  155  A    between atoms: _378  and  _379
REMARK  156  A    between atoms: _378  and  _381
REMARK  157  A    between atoms: _381  and  _382
REMARK  158  A    between atoms: _388  and  _390
REMARK  159  A    between atoms: _390  and  _391
REMARK  160  A    between atoms: _394  and  _396
REMARK  161  A    between atoms: _396  and  _397
REMARK  162  A    between atoms: _399  and  _401
REMARK  163  A    between atoms: _401  and  _402
REMARK  164  A    between atoms: _401  and  _404
REMARK  165  A    between atoms: _404  and  _405
REMARK  166  A    between atoms: _408  and  _410
REMARK  167  A    between atoms: _410  and  _411
REMARK  168  A    between atoms: _410  and  _413
REMARK  169  A    between atoms: _416  and  _418
REMARK  170  A    between atoms: _418  and  _419
REMARK  171  A    between atoms: _418  and  _421
REMARK  172  A    between atoms: _421  and  _422
REMARK  173  A    between atoms: _428  and  _430
REMARK  174  A    between atoms: _430  and  _431
REMARK  175  A    between atoms: _430  and  _433
REMARK  176  A    between atoms: _433  and  _434
REMARK  177  A    between atoms: _437  and  _439
REMARK  178  A    between atoms: _439  and  _440
REMARK  179  A    between atoms: _439  and  _442
REMARK  180  A    between atoms: _445  and  _447
REMARK  181  A    between atoms: _447  and  _448
REMARK  182  A    between atoms: _447  and  _450
REMARK  183  A    between atoms: _450  and  _451
REMARK  184  A    between atoms: _457  and  _458
REMARK  185  A    between atoms: _463  and  _465
REMARK  186  A    between atoms: _465  and  _466
REMARK  187  A    between atoms: _468  and  _470
REMARK  188  A    between atoms: _470  and  _471
REMARK  189  A    between atoms: _470  and  _473
REMARK  190  A    between atoms: _473  and  _474
REMARK  191  A    between atoms: _476  and  _478
REMARK  192  A    between atoms: _478  and  _479
REMARK  193  A    between atoms: _478  and  _481
REMARK  194  A    between atoms: _481  and  _482
REMARK  195  A    between atoms: _487  and  _489
REMARK  196  A    between atoms: _489  and  _490
REMARK  197  A    between atoms: _489  and  _492
REMARK  198  A    between atoms: _492  and  _493
REMARK  199  A    between atoms: _493  and  _494
REMARK  200  A    between atoms: _497  and  _499
REMARK  201  A    between atoms: _499  and  _500
REMARK  202  A    between atoms: _499  and  _502
REMARK  203  A    between atoms: _502  and  _503
REMARK  204  A    between atoms: _506  and  _508
REMARK  205  A    between atoms: _508  and  _509
REMARK  206  A    between atoms: _508  and  _511
REMARK  207  A    between atoms: _511  and  _512
REMARK  208  A    between atoms: _515  and  _517
REMARK  209  A    between atoms: _517  and  _518
REMARK  210  A    between atoms: _521  and  _523
REMARK  211  A    between atoms: _523  and  _524
REMARK  212  A    between atoms: _523  and  _526
REMARK  213  A    between atoms: _526  and  _527
REMARK  214  A    between atoms: _530  and  _532
REMARK  215  A    between atoms: _532  and  _533
REMARK  216  A    between atoms: _532  and  _535
REMARK  217  A    between atoms: _535  and  _536
REMARK  218  A    between atoms: _536  and  _537
REMARK  219  A    between atoms: _542  and  _544
REMARK  220  A    between atoms: _544  and  _545
REMARK  221  A    between atoms: _544  and  _547
REMARK  222  A    between atoms: _547  and  _548
REMARK  223  A    between atoms: _548  and  _549
REMARK  224  A    between atoms: _552  and  _554
REMARK  225  A    between atoms: _554  and  _555
REMARK  226  A    between atoms: _558  and  _560
REMARK  227  A    between atoms: _560  and  _561
REMARK  228  A    between atoms: _560  and  _563
REMARK  229  A    between atoms: _563  and  _564
REMARK  230  A    between atoms: _567  and  _569
REMARK  231  A    between atoms: _569  and  _570
REMARK  232  A    between atoms: _569  and  _572
REMARK  233  A    between atoms: _572  and  _573
REMARK  234  A    between atoms: _578  and  _580
REMARK  235  A    between atoms: _580  and  _581
REMARK  236  A    between atoms: _580  and  _583
REMARK  237  A    between atoms: _583  and  _584
REMARK  238  A    between atoms: _586  and  _588
REMARK  239  A    between atoms: _588  and  _589
REMARK  240  A    between atoms: _592  and  _594
REMARK  241  A    between atoms: _594  and  _595
REMARK  242  A    between atoms: _598  and  _600
REMARK  243  A    between atoms: _600  and  _601
REMARK  244  A    between atoms: _603  and  _605
REMARK  245  A    between atoms: _605  and  _606
REMARK  246  A    between atoms: _605  and  _608
REMARK  247  A    between atoms: _608  and  _609
REMARK  248  A    between atoms: _612  and  _614
REMARK  249  A    between atoms: _614  and  _615
REMARK  250  A    between atoms: _617  and  _619
REMARK  251  A    between atoms: _619  and  _620
REMARK  252  A    between atoms: _619  and  _622
REMARK  253  A    between atoms: _622  and  _623
REMARK  254  A    between atoms: _628  and  _630
REMARK  255  A    between atoms: _630  and  _631
REMARK  256  A    between atoms: _634  and  _636
REMARK  257  A    between atoms: _636  and  _637
REMARK  258  A    between atoms: _636  and  _639
REMARK  259  A    between atoms: _639  and  _640
REMARK  260  A    between atoms: _640  and  _641
REMARK  261  A    between atoms: _646  and  _648
REMARK  262  A    between atoms: _648  and  _649
REMARK  263  A    between atoms: _648  and  _651
REMARK  264  A    between atoms: _651  and  _652
REMARK  265  A    between atoms: _655  and  _657
REMARK  266  A    between atoms: _657  and  _658
REMARK  267  A    between atoms: _657  and  _660
REMARK  268  A    between atoms: _660  and  _661
REMARK                            x       y       z     vdW  Elec       q    Type
REMARK                         _______ _______ _______ _____ _____    ______ ____
ROOT
ATOM      1  O   HOH     1     101.939  46.038 100.787  0.00  0.00    +0.000 OA
ENDROOT
TORSDOF 0
REMARK  Name = ../refined-set-2016/3fzn/3fzn_pocket.pdb
REMARK  268 active torsions:
REMARK  status: ('A' for Active; 'I' for Inactive)
REMARK    1  A    between atoms: _1  and  _3
REMARK    2  A    between atoms: _3  and  _4
REMARK    3  A    between atoms: _6  and  _8
REMARK    4  A    between atoms: _8  and  _9
REMARK    5  A    between atoms: _8  and  _11
REMARK    6  A    between atoms: _11  and  _12
REMARK    7  A    between atoms: _17  and  _19
REMARK    8  A    between atoms: _19  and  _20
REMARK    9  A    between atoms: _19  and  _22
REMARK   10  A    between atoms: _22  and  _23
REMARK   11  A    between atoms: _25  and  _27
REMARK   12  A    between atoms: _27  and  _28
REMARK   13  A    between atoms: _27  and  _30
REMARK   14  A    between atoms: _30  and  _31
REMARK   15  A    between atoms: _36  and  _38
REMARK   16  A    between atoms: _38  and  _39
REMARK   17  A    between atoms: _38  and  _41
REMARK   18  A    between atoms: _41  and  _42
REMARK   19  A    between atoms: _42  and  _43
REMARK   20  A    between atoms: _49  and  _50
REMARK   21  A    between atoms: _55  and  _57
REMARK   22  A    between atoms: _57  and  _58
REMARK   23  A    between atoms: _57  and  _60
REMARK   24  A    between atoms: _60  and  _61
REMARK   25  A    between atoms: _66  and  _68
REMARK   26  A    between atoms: _68  and  _69
REMARK   27  A    between atoms: _68  and  _71
REMARK   28  A    between atoms: _71  and  _72
REMARK   29  A    between atoms: _72  and  _73
REMARK   30  A    between atoms: _76  and  _78
REMARK   31  A    between atoms: _78  and  _79
REMARK   32  A    between atoms: _78  and  _81
REMARK   33  A    between atoms: _81  and  _82
REMARK   34  A    between atoms: _84  and  _86
REMARK   35  A    between atoms: _86  and  _87
REMARK   36  A    between atoms: _86  and  _89
REMARK   37  A    between atoms: _89  and  _90
REMARK   38  A    between atoms: _93  and  _95
REMARK   39  A    between atoms: _95  and  _96
REMARK   40  A    between atoms: _95  and  _98
REMARK   41  A    between atoms: _98  and  _99
REMARK   42  A    between atoms: _101  and  _103
REMARK   43  A    between atoms: _103  and  _104
REMARK   44  A    between atoms: _103  and  _106
REMARK   45  A    between atoms: _106  and  _107
REMARK   46  A    between atoms: _110  and  _112
REMARK   47  A    between atoms: _112  and  _113
REMARK   48  A    between atoms: _112  and  _115
REMARK   49  A    between atoms: _115  and  _116
REMARK   50  A    between atoms: _119  and  _121
REMARK   51  A    between atoms: _121  and  _122
REMARK   52  A    between atoms: _121  and  _124
REMARK   53  A    between atoms: _124  and  _125
REMARK   54  A    between atoms: _131  and  _133
REMARK   55  A    between atoms: _133  and  _134
REMARK   56  A    between atoms: _133  and  _136
REMARK   57  A    between atoms: _138  and  _140
REMARK   58  A    between atoms: _140  and  _141
REMARK   59  A    between atoms: _144  and  _146
REMARK   60  A    between atoms: _146  and  _147
REMARK   61  A    between atoms: _149  and  _151
REMARK   62  A    between atoms: _151  and  _152
REMARK   63  A    between atoms: _154  and  _156
REMARK   64  A    between atoms: _156  and  _157
REMARK   65  A    between atoms: _156  and  _159
REMARK   66  A    between atoms: _159  and  _160
REMARK   67  A    between atoms: _163  and  _165
REMARK   68  A    between atoms: _165  and  _166
REMARK   69  A    between atoms: _168  and  _170
REMARK   70  A    between atoms: _170  and  _171
REMARK   71  A    between atoms: _170  and  _173
REMARK   72  A    between atoms: _173  and  _174
REMARK   73  A    between atoms: _180  and  _182
REMARK   74  A    between atoms: _182  and  _183
REMARK   75  A    between atoms: _182  and  _185
REMARK   76  A    between atoms: _188  and  _190
REMARK   77  A    between atoms: _190  and  _191
REMARK   78  A    between atoms: _190  and  _193
REMARK   79  A    between atoms: _193  and  _194
REMARK   80  A    between atoms: _197  and  _199
REMARK   81  A    between atoms: _199  and  _200
REMARK   82  A    between atoms: _202  and  _204
REMARK   83  A    between atoms: _204  and  _205
REMARK   84  A    between atoms: _204  and  _207
REMARK   85  A    between atoms: _207  and  _208
REMARK   86  A    between atoms: _208  and  _209
REMARK   87  A    between atoms: _209  and  MG_664
REMARK   88  A    between atoms: _211  and  _213
REMARK   89  A    between atoms: _213  and  _214
REMARK   90  A    between atoms: _216  and  _218
REMARK   91  A    between atoms: _218  and  _219
REMARK   92  A    between atoms: _218  and  _221
REMARK   93  A    between atoms: _221  and  _222
REMARK   94  A    between atoms: _224  and  _226
REMARK   95  A    between atoms: _226  and  _227
REMARK   96  A    between atoms: _230  and  _232
REMARK   97  A    between atoms: _232  and  _233
REMARK   98  A    between atoms: _232  and  _235
REMARK   99  A    between atoms: _235  and  _236
REMARK  100  A    between atoms: _241  and  _243
REMARK  101  A    between atoms: _243  and  _244
REMARK  102  A    between atoms: _243  and  _246
REMARK  103  A    between atoms: _246  and  _247
REMARK  104  A    between atoms: _252  and  _253
REMARK  105  A    between atoms: _255  and  _257
REMARK  106  A    between atoms: _257  and  _258
REMARK  107  A    between atoms: _257  and  _260
REMARK  108  A    between atoms: _260  and  _261
REMARK  109  A    between atoms: _264  and  _266
REMARK  110  A    between atoms: _266  and  _267
REMARK  111  A    between atoms: _266  and  _269
REMARK  112  A    between atoms: _269  and  _270
REMARK  113  A    between atoms: _270  and  _271
REMARK  114  A    between atoms: _273  and  _275
REMARK  115  A    between atoms: _275  and  _276
REMARK  116  A    between atoms: _275  and  _278
REMARK  117  A    between atoms: _278  and  _279
REMARK  118  A    between atoms: _284  and  _286
REMARK  119  A    between atoms: _286  and  _287
REMARK  120  A    between atoms: _286  and  _289
REMARK  121  A    between atoms: _289  and  _290
REMARK  122  A    between atoms: _290  and  _291
REMARK  123  A    between atoms: _290  and  _292
REMARK  124  A    between atoms: _291  and  MG_664
REMARK  125  A    between atoms: _295  and  _297
REMARK  126  A    between atoms: _297  and  _298
REMARK  127  A    between atoms: _300  and  _302
REMARK  128  A    between atoms: _302  and  _303
REMARK  129  A    between atoms: _302  and  _305
REMARK  130  A    between atoms: _305  and  _306
REMARK  131  A    between atoms: _309  and  _311
REMARK  132  A    between atoms: _311  and  _312
REMARK  133  A    between atoms: _311  and  _314
REMARK  134  A    between atoms: _314  and  _315
REMARK  135  A    between atoms: _320  and  _321
REMARK  136  A    between atoms: _323  and  _325
REMARK  137  A    between atoms: _325  and  _326
REMARK  138  A    between atoms: _328  and  _330
REMARK  139  A    between atoms: _330  and  _331
REMARK  140  A    between atoms: _334  and  _336
REMARK  141  A    between atoms: _336  and  _337
REMARK  142  A    between atoms: _336  and  _339
REMARK  143  A    between atoms: _339  and  _340
REMARK  144  A    between atoms: _343  and  _345
REMARK  145  A    between atoms: _345  and  _346
REMARK  146  A    between atoms: _345  and  _348
REMARK  147  A    between atoms: _348  and  _349
REMARK  148  A    between atoms: _349  and  _350
REMARK  149  A    between atoms: _350  and  _351
REMARK  150  A    between atoms: _360  and  _362
REMARK  151  A    between atoms: _362  and  _363
REMARK  152  A    between atoms: _362  and  _365
REMARK  153  A    between atoms: _365  and  _366
REMARK  154  A    between atoms: _376  and  _378
REMARK  155  A    between atoms: _378  and  _379
REMARK  156  A    between atoms: _378  and  _381
REMARK  157  A    between atoms: _381  and  _382
REMARK  158  A    between atoms: _388  and  _390
REMARK  159  A    between atoms: _390  and  _391
REMARK  160  A    between atoms: _394  and  _396
REMARK  161  A    between atoms: _396  and  _397
REMARK  162  A    between atoms: _399  and  _401
REMARK  163  A    between atoms: _401  and  _402
REMARK  164  A    between atoms: _401  and  _404
REMARK  165  A    between atoms: _404  and  _405
REMARK  166  A    between atoms: _408  and  _410
REMARK  167  A    between atoms: _410  and  _411
REMARK  168  A    between atoms: _410  and  _413
REMARK  169  A    between atoms: _416  and  _418
REMARK  170  A    between atoms: _418  and  _419
REMARK  171  A    between atoms: _418  and  _421
REMARK  172  A    between atoms: _421  and  _422
REMARK  173  A    between atoms: _428  and  _430
REMARK  174  A    between atoms: _430  and  _431
REMARK  175  A    between atoms: _430  and  _433
REMARK  176  A    between atoms: _433  and  _434
REMARK  177  A    between atoms: _437  and  _439
REMARK  178  A    between atoms: _439  and  _440
REMARK  179  A    between atoms: _439  and  _442
REMARK  180  A    between atoms: _445  and  _447
REMARK  181  A    between atoms: _447  and  _448
REMARK  182  A    between atoms: _447  and  _450
REMARK  183  A    between atoms: _450  and  _451
REMARK  184  A    between atoms: _457  and  _458
REMARK  185  A    between atoms: _463  and  _465
REMARK  186  A    between atoms: _465  and  _466
REMARK  187  A    between atoms: _468  and  _470
REMARK  188  A    between atoms: _470  and  _471
REMARK  189  A    between atoms: _470  and  _473
REMARK  190  A    between atoms: _473  and  _474
REMARK  191  A    between atoms: _476  and  _478
REMARK  192  A    between atoms: _478  and  _479
REMARK  193  A    between atoms: _478  and  _481
REMARK  194  A    between atoms: _481  and  _482
REMARK  195  A    between atoms: _487  and  _489
REMARK  196  A    between atoms: _489  and  _490
REMARK  197  A    between atoms: _489  and  _492
REMARK  198  A    between atoms: _492  and  _493
REMARK  199  A    between atoms: _493  and  _494
REMARK  200  A    between atoms: _497  and  _499
REMARK  201  A    between atoms: _499  and  _500
REMARK  202  A    between atoms: _499  and  _502
REMARK  203  A    between atoms: _502  and  _503
REMARK  204  A    between atoms: _506  and  _508
REMARK  205  A    between atoms: _508  and  _509
REMARK  206  A    between atoms: _508  and  _511
REMARK  207  A    between atoms: _511  and  _512
REMARK  208  A    between atoms: _515  and  _517
REMARK  209  A    between atoms: _517  and  _518
REMARK  210  A    between atoms: _521  and  _523
REMARK  211  A    between atoms: _523  and  _524
REMARK  212  A    between atoms: _523  and  _526
REMARK  213  A    between atoms: _526  and  _527
REMARK  214  A    between atoms: _530  and  _532
REMARK  215  A    between atoms: _532  and  _533
REMARK  216  A    between atoms: _532  and  _535
REMARK  217  A    between atoms: _535  and  _536
REMARK  218  A    between atoms: _536  and  _537
REMARK  219  A    between atoms: _542  and  _544
REMARK  220  A    between atoms: _544  and  _545
REMARK  221  A    between atoms: _544  and  _547
REMARK  222  A    between atoms: _547  and  _548
REMARK  223  A    between atoms: _548  and  _549
REMARK  224  A    between atoms: _552  and  _554
REMARK  225  A    between atoms: _554  and  _555
REMARK  226  A    between atoms: _558  and  _560
REMARK  227  A    between atoms: _560  and  _561
REMARK  228  A    between atoms: _560  and  _563
REMARK  229  A    between atoms: _563  and  _564
REMARK  230  A    between atoms: _567  and  _569
REMARK  231  A    between atoms: _569  and  _570
REMARK  232  A    between atoms: _569  and  _572
REMARK  233  A    between atoms: _572  and  _573
REMARK  234  A    between atoms: _578  and  _580
REMARK  235  A    between atoms: _580  and  _581
REMARK  236  A    between atoms: _580  and  _583
REMARK  237  A    between atoms: _583  and  _584
REMARK  238  A    between atoms: _586  and  _588
REMARK  239  A    between atoms: _588  and  _589
REMARK  240  A    between atoms: _592  and  _594
REMARK  241  A    between atoms: _594  and  _595
REMARK  242  A    between atoms: _598  and  _600
REMARK  243  A    between atoms: _600  and  _601
REMARK  244  A    between atoms: _603  and  _605
REMARK  245  A    between atoms: _605  and  _606
REMARK  246  A    between atoms: _605  and  _608
REMARK  247  A    between atoms: _608  and  _609
REMARK  248  A    between atoms: _612  and  _614
REMARK  249  A    between atoms: _614  and  _615
REMARK  250  A    between atoms: _617  and  _619
REMARK  251  A    between atoms: _619  and  _620
REMARK  252  A    between atoms: _619  and  _622
REMARK  253  A    between atoms: _622  and  _623
REMARK  254  A    between atoms: _628  and  _630
REMARK  255  A    between atoms: _630  and  _631
REMARK  256  A    between atoms: _634  and  _636
REMARK  257  A    between atoms: _636  and  _637
REMARK  258  A    between atoms: _636  and  _639
REMARK  259  A    between atoms: _639  and  _640
REMARK  260  A    between atoms: _640  and  _641
REMARK  261  A    between atoms: _646  and  _648
REMARK  262  A    between atoms: _648  and  _649
REMARK  263  A    between atoms: _648  and  _651
REMARK  264  A    between atoms: _651  and  _652
REMARK  265  A    between atoms: _655  and  _657
REMARK  266  A    between atoms: _657  and  _658
REMARK  267  A    between atoms: _657  and  _660
REMARK  268  A    between atoms: _660  and  _661
REMARK                            x       y       z     vdW  Elec       q    Type
REMARK                         _______ _______ _______ _____ _____    ______ ____
ROOT
ATOM      1  O   HOH     1      95.919  45.008  94.184  0.00  0.00    +0.000 OA
ENDROOT
TORSDOF 0
REMARK  Name = ../refined-set-2016/3fzn/3fzn_pocket.pdb
REMARK  268 active torsions:
REMARK  status: ('A' for Active; 'I' for Inactive)
REMARK    1  A    between atoms: _1  and  _3
REMARK    2  A    between atoms: _3  and  _4
REMARK    3  A    between atoms: _6  and  _8
REMARK    4  A    between atoms: _8  and  _9
REMARK    5  A    between atoms: _8  and  _11
REMARK    6  A    between atoms: _11  and  _12
REMARK    7  A    between atoms: _17  and  _19
REMARK    8  A    between atoms: _19  and  _20
REMARK    9  A    between atoms: _19  and  _22
REMARK   10  A    between atoms: _22  and  _23
REMARK   11  A    between atoms: _25  and  _27
REMARK   12  A    between atoms: _27  and  _28
REMARK   13  A    between atoms: _27  and  _30
REMARK   14  A    between atoms: _30  and  _31
REMARK   15  A    between atoms: _36  and  _38
REMARK   16  A    between atoms: _38  and  _39
REMARK   17  A    between atoms: _38  and  _41
REMARK   18  A    between atoms: _41  and  _42
REMARK   19  A    between atoms: _42  and  _43
REMARK   20  A    between atoms: _49  and  _50
REMARK   21  A    between atoms: _55  and  _57
REMARK   22  A    between atoms: _57  and  _58
REMARK   23  A    between atoms: _57  and  _60
REMARK   24  A    between atoms: _60  and  _61
REMARK   25  A    between atoms: _66  and  _68
REMARK   26  A    between atoms: _68  and  _69
REMARK   27  A    between atoms: _68  and  _71
REMARK   28  A    between atoms: _71  and  _72
REMARK   29  A    between atoms: _72  and  _73
REMARK   30  A    between atoms: _76  and  _78
REMARK   31  A    between atoms: _78  and  _79
REMARK   32  A    between atoms: _78  and  _81
REMARK   33  A    between atoms: _81  and  _82
REMARK   34  A    between atoms: _84  and  _86
REMARK   35  A    between atoms: _86  and  _87
REMARK   36  A    between atoms: _86  and  _89
REMARK   37  A    between atoms: _89  and  _90
REMARK   38  A    between atoms: _93  and  _95
REMARK   39  A    between atoms: _95  and  _96
REMARK   40  A    between atoms: _95  and  _98
REMARK   41  A    between atoms: _98  and  _99
REMARK   42  A    between atoms: _101  and  _103
REMARK   43  A    between atoms: _103  and  _104
REMARK   44  A    between atoms: _103  and  _106
REMARK   45  A    between atoms: _106  and  _107
REMARK   46  A    between atoms: _110  and  _112
REMARK   47  A    between atoms: _112  and  _113
REMARK   48  A    between atoms: _112  and  _115
REMARK   49  A    between atoms: _115  and  _116
REMARK   50  A    between atoms: _119  and  _121
REMARK   51  A    between atoms: _121  and  _122
REMARK   52  A    between atoms: _121  and  _124
REMARK   53  A    between atoms: _124  and  _125
REMARK   54  A    between atoms: _131  and  _133
REMARK   55  A    between atoms: _133  and  _134
REMARK   56  A    between atoms: _133  and  _136
REMARK   57  A    between atoms: _138  and  _140
REMARK   58  A    between atoms: _140  and  _141
REMARK   59  A    between atoms: _144  and  _146
REMARK   60  A    between atoms: _146  and  _147
REMARK   61  A    between atoms: _149  and  _151
REMARK   62  A    between atoms: _151  and  _152
REMARK   63  A    between atoms: _154  and  _156
REMARK   64  A    between atoms: _156  and  _157
REMARK   65  A    between atoms: _156  and  _159
REMARK   66  A    between atoms: _159  and  _160
REMARK   67  A    between atoms: _163  and  _165
REMARK   68  A    between atoms: _165  and  _166
REMARK   69  A    between atoms: _168  and  _170
REMARK   70  A    between atoms: _170  and  _171
REMARK   71  A    between atoms: _170  and  _173
REMARK   72  A    between atoms: _173  and  _174
REMARK   73  A    between atoms: _180  and  _182
REMARK   74  A    between atoms: _182  and  _183
REMARK   75  A    between atoms: _182  and  _185
REMARK   76  A    between atoms: _188  and  _190
REMARK   77  A    between atoms: _190  and  _191
REMARK   78  A    between atoms: _190  and  _193
REMARK   79  A    between atoms: _193  and  _194
REMARK   80  A    between atoms: _197  and  _199
REMARK   81  A    between atoms: _199  and  _200
REMARK   82  A    between atoms: _202  and  _204
REMARK   83  A    between atoms: _204  and  _205
REMARK   84  A    between atoms: _204  and  _207
REMARK   85  A    between atoms: _207  and  _208
REMARK   86  A    between atoms: _208  and  _209
REMARK   87  A    between atoms: _209  and  MG_664
REMARK   88  A    between atoms: _211  and  _213
REMARK   89  A    between atoms: _213  and  _214
REMARK   90  A    between atoms: _216  and  _218
REMARK   91  A    between atoms: _218  and  _219
REMARK   92  A    between atoms: _218  and  _221
REMARK   93  A    between atoms: _221  and  _222
REMARK   94  A    between atoms: _224  and  _226
REMARK   95  A    between atoms: _226  and  _227
REMARK   96  A    between atoms: _230  and  _232
REMARK   97  A    between atoms: _232  and  _233
REMARK   98  A    between atoms: _232  and  _235
REMARK   99  A    between atoms: _235  and  _236
REMARK  100  A    between atoms: _241  and  _243
REMARK  101  A    between atoms: _243  and  _244
REMARK  102  A    between atoms: _243  and  _246
REMARK  103  A    between atoms: _246  and  _247
REMARK  104  A    between atoms: _252  and  _253
REMARK  105  A    between atoms: _255  and  _257
REMARK  106  A    between atoms: _257  and  _258
REMARK  107  A    between atoms: _257  and  _260
REMARK  108  A    between atoms: _260  and  _261
REMARK  109  A    between atoms: _264  and  _266
REMARK  110  A    between atoms: _266  and  _267
REMARK  111  A    between atoms: _266  and  _269
REMARK  112  A    between atoms: _269  and  _270
REMARK  113  A    between atoms: _270  and  _271
REMARK  114  A    between atoms: _273  and  _275
REMARK  115  A    between atoms: _275  and  _276
REMARK  116  A    between atoms: _275  and  _278
REMARK  117  A    between atoms: _278  and  _279
REMARK  118  A    between atoms: _284  and  _286
REMARK  119  A    between atoms: _286  and  _287
REMARK  120  A    between atoms: _286  and  _289
REMARK  121  A    between atoms: _289  and  _290
REMARK  122  A    between atoms: _290  and  _291
REMARK  123  A    between atoms: _290  and  _292
REMARK  124  A    between atoms: _291  and  MG_664
REMARK  125  A    between atoms: _295  and  _297
REMARK  126  A    between atoms: _297  and  _298
REMARK  127  A    between atoms: _300  and  _302
REMARK  128  A    between atoms: _302  and  _303
REMARK  129  A    between atoms: _302  and  _305
REMARK  130  A    between atoms: _305  and  _306
REMARK  131  A    between atoms: _309  and  _311
REMARK  132  A    between atoms: _311  and  _312
REMARK  133  A    between atoms: _311  and  _314
REMARK  134  A    between atoms: _314  and  _315
REMARK  135  A    between atoms: _320  and  _321
REMARK  136  A    between atoms: _323  and  _325
REMARK  137  A    between atoms: _325  and  _326
REMARK  138  A    between atoms: _328  and  _330
REMARK  139  A    between atoms: _330  and  _331
REMARK  140  A    between atoms: _334  and  _336
REMARK  141  A    between atoms: _336  and  _337
REMARK  142  A    between atoms: _336  and  _339
REMARK  143  A    between atoms: _339  and  _340
REMARK  144  A    between atoms: _343  and  _345
REMARK  145  A    between atoms: _345  and  _346
REMARK  146  A    between atoms: _345  and  _348
REMARK  147  A    between atoms: _348  and  _349
REMARK  148  A    between atoms: _349  and  _350
REMARK  149  A    between atoms: _350  and  _351
REMARK  150  A    between atoms: _360  and  _362
REMARK  151  A    between atoms: _362  and  _363
REMARK  152  A    between atoms: _362  and  _365
REMARK  153  A    between atoms: _365  and  _366
REMARK  154  A    between atoms: _376  and  _378
REMARK  155  A    between atoms: _378  and  _379
REMARK  156  A    between atoms: _378  and  _381
REMARK  157  A    between atoms: _381  and  _382
REMARK  158  A    between atoms: _388  and  _390
REMARK  159  A    between atoms: _390  and  _391
REMARK  160  A    between atoms: _394  and  _396
REMARK  161  A    between atoms: _396  and  _397
REMARK  162  A    between atoms: _399  and  _401
REMARK  163  A    between atoms: _401  and  _402
REMARK  164  A    between atoms: _401  and  _404
REMARK  165  A    between atoms: _404  and  _405
REMARK  166  A    between atoms: _408  and  _410
REMARK  167  A    between atoms: _410  and  _411
REMARK  168  A    between atoms: _410  and  _413
REMARK  169  A    between atoms: _416  and  _418
REMARK  170  A    between atoms: _418  and  _419
REMARK  171  A    between atoms: _418  and  _421
REMARK  172  A    between atoms: _421  and  _422
REMARK  173  A    between atoms: _428  and  _430
REMARK  174  A    between atoms: _430  and  _431
REMARK  175  A    between atoms: _430  and  _433
REMARK  176  A    between atoms: _433  and  _434
REMARK  177  A    between atoms: _437  and  _439
REMARK  178  A    between atoms: _439  and  _440
REMARK  179  A    between atoms: _439  and  _442
REMARK  180  A    between atoms: _445  and  _447
REMARK  181  A    between atoms: _447  and  _448
REMARK  182  A    between atoms: _447  and  _450
REMARK  183  A    between atoms: _450  and  _451
REMARK  184  A    between atoms: _457  and  _458
REMARK  185  A    between atoms: _463  and  _465
REMARK  186  A    between atoms: _465  and  _466
REMARK  187  A    between atoms: _468  and  _470
REMARK  188  A    between atoms: _470  and  _471
REMARK  189  A    between atoms: _470  and  _473
REMARK  190  A    between atoms: _473  and  _474
REMARK  191  A    between atoms: _476  and  _478
REMARK  192  A    between atoms: _478  and  _479
REMARK  193  A    between atoms: _478  and  _481
REMARK  194  A    between atoms: _481  and  _482
REMARK  195  A    between atoms: _487  and  _489
REMARK  196  A    between atoms: _489  and  _490
REMARK  197  A    between atoms: _489  and  _492
REMARK  198  A    between atoms: _492  and  _493
REMARK  199  A    between atoms: _493  and  _494
REMARK  200  A    between atoms: _497  and  _499
REMARK  201  A    between atoms: _499  and  _500
REMARK  202  A    between atoms: _499  and  _502
REMARK  203  A    between atoms: _502  and  _503
REMARK  204  A    between atoms: _506  and  _508
REMARK  205  A    between atoms: _508  and  _509
REMARK  206  A    between atoms: _508  and  _511
REMARK  207  A    between atoms: _511  and  _512
REMARK  208  A    between atoms: _515  and  _517
REMARK  209  A    between atoms: _517  and  _518
REMARK  210  A    between atoms: _521  and  _523
REMARK  211  A    between atoms: _523  and  _524
REMARK  212  A    between atoms: _523  and  _526
REMARK  213  A    between atoms: _526  and  _527
REMARK  214  A    between atoms: _530  and  _532
REMARK  215  A    between atoms: _532  and  _533
REMARK  216  A    between atoms: _532  and  _535
REMARK  217  A    between atoms: _535  and  _536
REMARK  218  A    between atoms: _536  and  _537
REMARK  219  A    between atoms: _542  and  _544
REMARK  220  A    between atoms: _544  and  _545
REMARK  221  A    between atoms: _544  and  _547
REMARK  222  A    between atoms: _547  and  _548
REMARK  223  A    between atoms: _548  and  _549
REMARK  224  A    between atoms: _552  and  _554
REMARK  225  A    between atoms: _554  and  _555
REMARK  226  A    between atoms: _558  and  _560
REMARK  227  A    between atoms: _560  and  _561
REMARK  228  A    between atoms: _560  and  _563
REMARK  229  A    between atoms: _563  and  _564
REMARK  230  A    between atoms: _567  and  _569
REMARK  231  A    between atoms: _569  and  _570
REMARK  232  A    between atoms: _569  and  _572
REMARK  233  A    between atoms: _572  and  _573
REMARK  234  A    between atoms: _578  and  _580
REMARK  235  A    between atoms: _580  and  _581
REMARK  236  A    between atoms: _580  and  _583
REMARK  237  A    between atoms: _583  and  _584
REMARK  238  A    between atoms: _586  and  _588
REMARK  239  A    between atoms: _588  and  _589
REMARK  240  A    between atoms: _592  and  _594
REMARK  241  A    between atoms: _594  and  _595
REMARK  242  A    between atoms: _598  and  _600
REMARK  243  A    between atoms: _600  and  _601
REMARK  244  A    between atoms: _603  and  _605
REMARK  245  A    between atoms: _605  and  _606
REMARK  246  A    between atoms: _605  and  _608
REMARK  247  A    between atoms: _608  and  _609
REMARK  248  A    between atoms: _612  and  _614
REMARK  249  A    between atoms: _614  and  _615
REMARK  250  A    between atoms: _617  and  _619
REMARK  251  A    between atoms: _619  and  _620
REMARK  252  A    between atoms: _619  and  _622
REMARK  253  A    between atoms: _622  and  _623
REMARK  254  A    between atoms: _628  and  _630
REMARK  255  A    between atoms: _630  and  _631
REMARK  256  A    between atoms: _634  and  _636
REMARK  257  A    between atoms: _636  and  _637
REMARK  258  A    between atoms: _636  and  _639
REMARK  259  A    between atoms: _639  and  _640
REMARK  260  A    between atoms: _640  and  _641
REMARK  261  A    between atoms: _646  and  _648
REMARK  262  A    between atoms: _648  and  _649
REMARK  263  A    between atoms: _648  and  _651
REMARK  264  A    between atoms: _651  and  _652
REMARK  265  A    between atoms: _655  and  _657
REMARK  266  A    between atoms: _657  and  _658
REMARK  267  A    between atoms: _657  and  _660
REMARK  268  A    between atoms: _660  and  _661
REMARK                            x       y       z     vdW  Elec       q    Type
REMARK                         _______ _______ _______ _____ _____    ______ ____
ROOT
ATOM      1  O   HOH     1     103.923  49.876  86.520  0.00  0.00    +0.000 OA
ENDROOT
TORSDOF 0
REMARK  Name = ../refined-set-2016/3fzn/3fzn_pocket.pdb
REMARK  268 active torsions:
REMARK  status: ('A' for Active; 'I' for Inactive)
REMARK    1  A    between atoms: _1  and  _3
REMARK    2  A    between atoms: _3  and  _4
REMARK    3  A    between atoms: _6  and  _8
REMARK    4  A    between atoms: _8  and  _9
REMARK    5  A    between atoms: _8  and  _11
REMARK    6  A    between atoms: _11  and  _12
REMARK    7  A    between atoms: _17  and  _19
REMARK    8  A    between atoms: _19  and  _20
REMARK    9  A    between atoms: _19  and  _22
REMARK   10  A    between atoms: _22  and  _23
REMARK   11  A    between atoms: _25  and  _27
REMARK   12  A    between atoms: _27  and  _28
REMARK   13  A    between atoms: _27  and  _30
REMARK   14  A    between atoms: _30  and  _31
REMARK   15  A    between atoms: _36  and  _38
REMARK   16  A    between atoms: _38  and  _39
REMARK   17  A    between atoms: _38  and  _41
REMARK   18  A    between atoms: _41  and  _42
REMARK   19  A    between atoms: _42  and  _43
REMARK   20  A    between atoms: _49  and  _50
REMARK   21  A    between atoms: _55  and  _57
REMARK   22  A    between atoms: _57  and  _58
REMARK   23  A    between atoms: _57  and  _60
REMARK   24  A    between atoms: _60  and  _61
REMARK   25  A    between atoms: _66  and  _68
REMARK   26  A    between atoms: _68  and  _69
REMARK   27  A    between atoms: _68  and  _71
REMARK   28  A    between atoms: _71  and  _72
REMARK   29  A    between atoms: _72  and  _73
REMARK   30  A    between atoms: _76  and  _78
REMARK   31  A    between atoms: _78  and  _79
REMARK   32  A    between atoms: _78  and  _81
REMARK   33  A    between atoms: _81  and  _82
REMARK   34  A    between atoms: _84  and  _86
REMARK   35  A    between atoms: _86  and  _87
REMARK   36  A    between atoms: _86  and  _89
REMARK   37  A    between atoms: _89  and  _90
REMARK   38  A    between atoms: _93  and  _95
REMARK   39  A    between atoms: _95  and  _96
REMARK   40  A    between atoms: _95  and  _98
REMARK   41  A    between atoms: _98  and  _99
REMARK   42  A    between atoms: _101  and  _103
REMARK   43  A    between atoms: _103  and  _104
REMARK   44  A    between atoms: _103  and  _106
REMARK   45  A    between atoms: _106  and  _107
REMARK   46  A    between atoms: _110  and  _112
REMARK   47  A    between atoms: _112  and  _113
REMARK   48  A    between atoms: _112  and  _115
REMARK   49  A    between atoms: _115  and  _116
REMARK   50  A    between atoms: _119  and  _121
REMARK   51  A    between atoms: _121  and  _122
REMARK   52  A    between atoms: _121  and  _124
REMARK   53  A    between atoms: _124  and  _125
REMARK   54  A    between atoms: _131  and  _133
REMARK   55  A    between atoms: _133  and  _134
REMARK   56  A    between atoms: _133  and  _136
REMARK   57  A    between atoms: _138  and  _140
REMARK   58  A    between atoms: _140  and  _141
REMARK   59  A    between atoms: _144  and  _146
REMARK   60  A    between atoms: _146  and  _147
REMARK   61  A    between atoms: _149  and  _151
REMARK   62  A    between atoms: _151  and  _152
REMARK   63  A    between atoms: _154  and  _156
REMARK   64  A    between atoms: _156  and  _157
REMARK   65  A    between atoms: _156  and  _159
REMARK   66  A    between atoms: _159  and  _160
REMARK   67  A    between atoms: _163  and  _165
REMARK   68  A    between atoms: _165  and  _166
REMARK   69  A    between atoms: _168  and  _170
REMARK   70  A    between atoms: _170  and  _171
REMARK   71  A    between atoms: _170  and  _173
REMARK   72  A    between atoms: _173  and  _174
REMARK   73  A    between atoms: _180  and  _182
REMARK   74  A    between atoms: _182  and  _183
REMARK   75  A    between atoms: _182  and  _185
REMARK   76  A    between atoms: _188  and  _190
REMARK   77  A    between atoms: _190  and  _191
REMARK   78  A    between atoms: _190  and  _193
REMARK   79  A    between atoms: _193  and  _194
REMARK   80  A    between atoms: _197  and  _199
REMARK   81  A    between atoms: _199  and  _200
REMARK   82  A    between atoms: _202  and  _204
REMARK   83  A    between atoms: _204  and  _205
REMARK   84  A    between atoms: _204  and  _207
REMARK   85  A    between atoms: _207  and  _208
REMARK   86  A    between atoms: _208  and  _209
REMARK   87  A    between atoms: _209  and  MG_664
REMARK   88  A    between atoms: _211  and  _213
REMARK   89  A    between atoms: _213  and  _214
REMARK   90  A    between atoms: _216  and  _218
REMARK   91  A    between atoms: _218  and  _219
REMARK   92  A    between atoms: _218  and  _221
REMARK   93  A    between atoms: _221  and  _222
REMARK   94  A    between atoms: _224  and  _226
REMARK   95  A    between atoms: _226  and  _227
REMARK   96  A    between atoms: _230  and  _232
REMARK   97  A    between atoms: _232  and  _233
REMARK   98  A    between atoms: _232  and  _235
REMARK   99  A    between atoms: _235  and  _236
REMARK  100  A    between atoms: _241  and  _243
REMARK  101  A    between atoms: _243  and  _244
REMARK  102  A    between atoms: _243  and  _246
REMARK  103  A    between atoms: _246  and  _247
REMARK  104  A    between atoms: _252  and  _253
REMARK  105  A    between atoms: _255  and  _257
REMARK  106  A    between atoms: _257  and  _258
REMARK  107  A    between atoms: _257  and  _260
REMARK  108  A    between atoms: _260  and  _261
REMARK  109  A    between atoms: _264  and  _266
REMARK  110  A    between atoms: _266  and  _267
REMARK  111  A    between atoms: _266  and  _269
REMARK  112  A    between atoms: _269  and  _270
REMARK  113  A    between atoms: _270  and  _271
REMARK  114  A    between atoms: _273  and  _275
REMARK  115  A    between atoms: _275  and  _276
REMARK  116  A    between atoms: _275  and  _278
REMARK  117  A    between atoms: _278  and  _279
REMARK  118  A    between atoms: _284  and  _286
REMARK  119  A    between atoms: _286  and  _287
REMARK  120  A    between atoms: _286  and  _289
REMARK  121  A    between atoms: _289  and  _290
REMARK  122  A    between atoms: _290  and  _291
REMARK  123  A    between atoms: _290  and  _292
REMARK  124  A    between atoms: _291  and  MG_664
REMARK  125  A    between atoms: _295  and  _297
REMARK  126  A    between atoms: _297  and  _298
REMARK  127  A    between atoms: _300  and  _302
REMARK  128  A    between atoms: _302  and  _303
REMARK  129  A    between atoms: _302  and  _305
REMARK  130  A    between atoms: _305  and  _306
REMARK  131  A    between atoms: _309  and  _311
REMARK  132  A    between atoms: _311  and  _312
REMARK  133  A    between atoms: _311  and  _314
REMARK  134  A    between atoms: _314  and  _315
REMARK  135  A    between atoms: _320  and  _321
REMARK  136  A    between atoms: _323  and  _325
REMARK  137  A    between atoms: _325  and  _326
REMARK  138  A    between atoms: _328  and  _330
REMARK  139  A    between atoms: _330  and  _331
REMARK  140  A    between atoms: _334  and  _336
REMARK  141  A    between atoms: _336  and  _337
REMARK  142  A    between atoms: _336  and  _339
REMARK  143  A    between atoms: _339  and  _340
REMARK  144  A    between atoms: _343  and  _345
REMARK  145  A    between atoms: _345  and  _346
REMARK  146  A    between atoms: _345  and  _348
REMARK  147  A    between atoms: _348  and  _349
REMARK  148  A    between atoms: _349  and  _350
REMARK  149  A    between atoms: _350  and  _351
REMARK  150  A    between atoms: _360  and  _362
REMARK  151  A    between atoms: _362  and  _363
REMARK  152  A    between atoms: _362  and  _365
REMARK  153  A    between atoms: _365  and  _366
REMARK  154  A    between atoms: _376  and  _378
REMARK  155  A    between atoms: _378  and  _379
REMARK  156  A    between atoms: _378  and  _381
REMARK  157  A    between atoms: _381  and  _382
REMARK  158  A    between atoms: _388  and  _390
REMARK  159  A    between atoms: _390  and  _391
REMARK  160  A    between atoms: _394  and  _396
REMARK  161  A    between atoms: _396  and  _397
REMARK  162  A    between atoms: _399  and  _401
REMARK  163  A    between atoms: _401  and  _402
REMARK  164  A    between atoms: _401  and  _404
REMARK  165  A    between atoms: _404  and  _405
REMARK  166  A    between atoms: _408  and  _410
REMARK  167  A    between atoms: _410  and  _411
REMARK  168  A    between atoms: _410  and  _413
REMARK  169  A    between atoms: _416  and  _418
REMARK  170  A    between atoms: _418  and  _419
REMARK  171  A    between atoms: _418  and  _421
REMARK  172  A    between atoms: _421  and  _422
REMARK  173  A    between atoms: _428  and  _430
REMARK  174  A    between atoms: _430  and  _431
REMARK  175  A    between atoms: _430  and  _433
REMARK  176  A    between atoms: _433  and  _434
REMARK  177  A    between atoms: _437  and  _439
REMARK  178  A    between atoms: _439  and  _440
REMARK  179  A    between atoms: _439  and  _442
REMARK  180  A    between atoms: _445  and  _447
REMARK  181  A    between atoms: _447  and  _448
REMARK  182  A    between atoms: _447  and  _450
REMARK  183  A    between atoms: _450  and  _451
REMARK  184  A    between atoms: _457  and  _458
REMARK  185  A    between atoms: _463  and  _465
REMARK  186  A    between atoms: _465  and  _466
REMARK  187  A    between atoms: _468  and  _470
REMARK  188  A    between atoms: _470  and  _471
REMARK  189  A    between atoms: _470  and  _473
REMARK  190  A    between atoms: _473  and  _474
REMARK  191  A    between atoms: _476  and  _478
REMARK  192  A    between atoms: _478  and  _479
REMARK  193  A    between atoms: _478  and  _481
REMARK  194  A    between atoms: _481  and  _482
REMARK  195  A    between atoms: _487  and  _489
REMARK  196  A    between atoms: _489  and  _490
REMARK  197  A    between atoms: _489  and  _492
REMARK  198  A    between atoms: _492  and  _493
REMARK  199  A    between atoms: _493  and  _494
REMARK  200  A    between atoms: _497  and  _499
REMARK  201  A    between atoms: _499  and  _500
REMARK  202  A    between atoms: _499  and  _502
REMARK  203  A    between atoms: _502  and  _503
REMARK  204  A    between atoms: _506  and  _508
REMARK  205  A    between atoms: _508  and  _509
REMARK  206  A    between atoms: _508  and  _511
REMARK  207  A    between atoms: _511  and  _512
REMARK  208  A    between atoms: _515  and  _517
REMARK  209  A    between atoms: _517  and  _518
REMARK  210  A    between atoms: _521  and  _523
REMARK  211  A    between atoms: _523  and  _524
REMARK  212  A    between atoms: _523  and  _526
REMARK  213  A    between atoms: _526  and  _527
REMARK  214  A    between atoms: _530  and  _532
REMARK  215  A    between atoms: _532  and  _533
REMARK  216  A    between atoms: _532  and  _535
REMARK  217  A    between atoms: _535  and  _536
REMARK  218  A    between atoms: _536  and  _537
REMARK  219  A    between atoms: _542  and  _544
REMARK  220  A    between atoms: _544  and  _545
REMARK  221  A    between atoms: _544  and  _547
REMARK  222  A    between atoms: _547  and  _548
REMARK  223  A    between atoms: _548  and  _549
REMARK  224  A    between atoms: _552  and  _554
REMARK  225  A    between atoms: _554  and  _555
REMARK  226  A    between atoms: _558  and  _560
REMARK  227  A    between atoms: _560  and  _561
REMARK  228  A    between atoms: _560  and  _563
REMARK  229  A    between atoms: _563  and  _564
REMARK  230  A    between atoms: _567  and  _569
REMARK  231  A    between atoms: _569  and  _570
REMARK  232  A    between atoms: _569  and  _572
REMARK  233  A    between atoms: _572  and  _573
REMARK  234  A    between atoms: _578  and  _580
REMARK  235  A    between atoms: _580  and  _581
REMARK  236  A    between atoms: _580  and  _583
REMARK  237  A    between atoms: _583  and  _584
REMARK  238  A    between atoms: _586  and  _588
REMARK  239  A    between atoms: _588  and  _589
REMARK  240  A    between atoms: _592  and  _594
REMARK  241  A    between atoms: _594  and  _595
REMARK  242  A    between atoms: _598  and  _600
REMARK  243  A    between atoms: _600  and  _601
REMARK  244  A    between atoms: _603  and  _605
REMARK  245  A    between atoms: _605  and  _606
REMARK  246  A    between atoms: _605  and  _608
REMARK  247  A    between atoms: _608  and  _609
REMARK  248  A    between atoms: _612  and  _614
REMARK  249  A    between atoms: _614  and  _615
REMARK  250  A    between atoms: _617  and  _619
REMARK  251  A    between atoms: _619  and  _620
REMARK  252  A    between atoms: _619  and  _622
REMARK  253  A    between atoms: _622  and  _623
REMARK  254  A    between atoms: _628  and  _630
REMARK  255  A    between atoms: _630  and  _631
REMARK  256  A    between atoms: _634  and  _636
REMARK  257  A    between atoms: _636  and  _637
REMARK  258  A    between atoms: _636  and  _639
REMARK  259  A    between atoms: _639  and  _640
REMARK  260  A    between atoms: _640  and  _641
REMARK  261  A    between atoms: _646  and  _648
REMARK  262  A    between atoms: _648  and  _649
REMARK  263  A    between atoms: _648  and  _651
REMARK  264  A    between atoms: _651  and  _652
REMARK  265  A    between atoms: _655  and  _657
REMARK  266  A    between atoms: _657  and  _658
REMARK  267  A    between atoms: _657  and  _660
REMARK  268  A    between atoms: _660  and  _661
REMARK                            x       y       z     vdW  Elec       q    Type
REMARK                         _______ _______ _______ _____ _____    ______ ____
ROOT
ATOM      1  O   HOH     1      96.681  44.813  91.474  0.00  0.00    +0.000 OA
ENDROOT
TORSDOF 0
REMARK  Name = ../refined-set-2016/3fzn/3fzn_pocket.pdb
REMARK  268 active torsions:
REMARK  status: ('A' for Active; 'I' for Inactive)
REMARK    1  A    between atoms: _1  and  _3
REMARK    2  A    between atoms: _3  and  _4
REMARK    3  A    between atoms: _6  and  _8
REMARK    4  A    between atoms: _8  and  _9
REMARK    5  A    between atoms: _8  and  _11
REMARK    6  A    between atoms: _11  and  _12
REMARK    7  A    between atoms: _17  and  _19
REMARK    8  A    between atoms: _19  and  _20
REMARK    9  A    between atoms: _19  and  _22
REMARK   10  A    between atoms: _22  and  _23
REMARK   11  A    between atoms: _25  and  _27
REMARK   12  A    between atoms: _27  and  _28
REMARK   13  A    between atoms: _27  and  _30
REMARK   14  A    between atoms: _30  and  _31
REMARK   15  A    between atoms: _36  and  _38
REMARK   16  A    between atoms: _38  and  _39
REMARK   17  A    between atoms: _38  and  _41
REMARK   18  A    between atoms: _41  and  _42
REMARK   19  A    between atoms: _42  and  _43
REMARK   20  A    between atoms: _49  and  _50
REMARK   21  A    between atoms: _55  and  _57
REMARK   22  A    between atoms: _57  and  _58
REMARK   23  A    between atoms: _57  and  _60
REMARK   24  A    between atoms: _60  and  _61
REMARK   25  A    between atoms: _66  and  _68
REMARK   26  A    between atoms: _68  and  _69
REMARK   27  A    between atoms: _68  and  _71
REMARK   28  A    between atoms: _71  and  _72
REMARK   29  A    between atoms: _72  and  _73
REMARK   30  A    between atoms: _76  and  _78
REMARK   31  A    between atoms: _78  and  _79
REMARK   32  A    between atoms: _78  and  _81
REMARK   33  A    between atoms: _81  and  _82
REMARK   34  A    between atoms: _84  and  _86
REMARK   35  A    between atoms: _86  and  _87
REMARK   36  A    between atoms: _86  and  _89
REMARK   37  A    between atoms: _89  and  _90
REMARK   38  A    between atoms: _93  and  _95
REMARK   39  A    between atoms: _95  and  _96
REMARK   40  A    between atoms: _95  and  _98
REMARK   41  A    between atoms: _98  and  _99
REMARK   42  A    between atoms: _101  and  _103
REMARK   43  A    between atoms: _103  and  _104
REMARK   44  A    between atoms: _103  and  _106
REMARK   45  A    between atoms: _106  and  _107
REMARK   46  A    between atoms: _110  and  _112
REMARK   47  A    between atoms: _112  and  _113
REMARK   48  A    between atoms: _112  and  _115
REMARK   49  A    between atoms: _115  and  _116
REMARK   50  A    between atoms: _119  and  _121
REMARK   51  A    between atoms: _121  and  _122
REMARK   52  A    between atoms: _121  and  _124
REMARK   53  A    between atoms: _124  and  _125
REMARK   54  A    between atoms: _131  and  _133
REMARK   55  A    between atoms: _133  and  _134
REMARK   56  A    between atoms: _133  and  _136
REMARK   57  A    between atoms: _138  and  _140
REMARK   58  A    between atoms: _140  and  _141
REMARK   59  A    between atoms: _144  and  _146
REMARK   60  A    between atoms: _146  and  _147
REMARK   61  A    between atoms: _149  and  _151
REMARK   62  A    between atoms: _151  and  _152
REMARK   63  A    between atoms: _154  and  _156
REMARK   64  A    between atoms: _156  and  _157
REMARK   65  A    between atoms: _156  and  _159
REMARK   66  A    between atoms: _159  and  _160
REMARK   67  A    between atoms: _163  and  _165
REMARK   68  A    between atoms: _165  and  _166
REMARK   69  A    between atoms: _168  and  _170
REMARK   70  A    between atoms: _170  and  _171
REMARK   71  A    between atoms: _170  and  _173
REMARK   72  A    between atoms: _173  and  _174
REMARK   73  A    between atoms: _180  and  _182
REMARK   74  A    between atoms: _182  and  _183
REMARK   75  A    between atoms: _182  and  _185
REMARK   76  A    between atoms: _188  and  _190
REMARK   77  A    between atoms: _190  and  _191
REMARK   78  A    between atoms: _190  and  _193
REMARK   79  A    between atoms: _193  and  _194
REMARK   80  A    between atoms: _197  and  _199
REMARK   81  A    between atoms: _199  and  _200
REMARK   82  A    between atoms: _202  and  _204
REMARK   83  A    between atoms: _204  and  _205
REMARK   84  A    between atoms: _204  and  _207
REMARK   85  A    between atoms: _207  and  _208
REMARK   86  A    between atoms: _208  and  _209
REMARK   87  A    between atoms: _209  and  MG_664
REMARK   88  A    between atoms: _211  and  _213
REMARK   89  A    between atoms: _213  and  _214
REMARK   90  A    between atoms: _216  and  _218
REMARK   91  A    between atoms: _218  and  _219
REMARK   92  A    between atoms: _218  and  _221
REMARK   93  A    between atoms: _221  and  _222
REMARK   94  A    between atoms: _224  and  _226
REMARK   95  A    between atoms: _226  and  _227
REMARK   96  A    between atoms: _230  and  _232
REMARK   97  A    between atoms: _232  and  _233
REMARK   98  A    between atoms: _232  and  _235
REMARK   99  A    between atoms: _235  and  _236
REMARK  100  A    between atoms: _241  and  _243
REMARK  101  A    between atoms: _243  and  _244
REMARK  102  A    between atoms: _243  and  _246
REMARK  103  A    between atoms: _246  and  _247
REMARK  104  A    between atoms: _252  and  _253
REMARK  105  A    between atoms: _255  and  _257
REMARK  106  A    between atoms: _257  and  _258
REMARK  107  A    between atoms: _257  and  _260
REMARK  108  A    between atoms: _260  and  _261
REMARK  109  A    between atoms: _264  and  _266
REMARK  110  A    between atoms: _266  and  _267
REMARK  111  A    between atoms: _266  and  _269
REMARK  112  A    between atoms: _269  and  _270
REMARK  113  A    between atoms: _270  and  _271
REMARK  114  A    between atoms: _273  and  _275
REMARK  115  A    between atoms: _275  and  _276
REMARK  116  A    between atoms: _275  and  _278
REMARK  117  A    between atoms: _278  and  _279
REMARK  118  A    between atoms: _284  and  _286
REMARK  119  A    between atoms: _286  and  _287
REMARK  120  A    between atoms: _286  and  _289
REMARK  121  A    between atoms: _289  and  _290
REMARK  122  A    between atoms: _290  and  _291
REMARK  123  A    between atoms: _290  and  _292
REMARK  124  A    between atoms: _291  and  MG_664
REMARK  125  A    between atoms: _295  and  _297
REMARK  126  A    between atoms: _297  and  _298
REMARK  127  A    between atoms: _300  and  _302
REMARK  128  A    between atoms: _302  and  _303
REMARK  129  A    between atoms: _302  and  _305
REMARK  130  A    between atoms: _305  and  _306
REMARK  131  A    between atoms: _309  and  _311
REMARK  132  A    between atoms: _311  and  _312
REMARK  133  A    between atoms: _311  and  _314
REMARK  134  A    between atoms: _314  and  _315
REMARK  135  A    between atoms: _320  and  _321
REMARK  136  A    between atoms: _323  and  _325
REMARK  137  A    between atoms: _325  and  _326
REMARK  138  A    between atoms: _328  and  _330
REMARK  139  A    between atoms: _330  and  _331
REMARK  140  A    between atoms: _334  and  _336
REMARK  141  A    between atoms: _336  and  _337
REMARK  142  A    between atoms: _336  and  _339
REMARK  143  A    between atoms: _339  and  _340
REMARK  144  A    between atoms: _343  and  _345
REMARK  145  A    between atoms: _345  and  _346
REMARK  146  A    between atoms: _345  and  _348
REMARK  147  A    between atoms: _348  and  _349
REMARK  148  A    between atoms: _349  and  _350
REMARK  149  A    between atoms: _350  and  _351
REMARK  150  A    between atoms: _360  and  _362
REMARK  151  A    between atoms: _362  and  _363
REMARK  152  A    between atoms: _362  and  _365
REMARK  153  A    between atoms: _365  and  _366
REMARK  154  A    between atoms: _376  and  _378
REMARK  155  A    between atoms: _378  and  _379
REMARK  156  A    between atoms: _378  and  _381
REMARK  157  A    between atoms: _381  and  _382
REMARK  158  A    between atoms: _388  and  _390
REMARK  159  A    between atoms: _390  and  _391
REMARK  160  A    between atoms: _394  and  _396
REMARK  161  A    between atoms: _396  and  _397
REMARK  162  A    between atoms: _399  and  _401
REMARK  163  A    between atoms: _401  and  _402
REMARK  164  A    between atoms: _401  and  _404
REMARK  165  A    between atoms: _404  and  _405
REMARK  166  A    between atoms: _408  and  _410
REMARK  167  A    between atoms: _410  and  _411
REMARK  168  A    between atoms: _410  and  _413
REMARK  169  A    between atoms: _416  and  _418
REMARK  170  A    between atoms: _418  and  _419
REMARK  171  A    between atoms: _418  and  _421
REMARK  172  A    between atoms: _421  and  _422
REMARK  173  A    between atoms: _428  and  _430
REMARK  174  A    between atoms: _430  and  _431
REMARK  175  A    between atoms: _430  and  _433
REMARK  176  A    between atoms: _433  and  _434
REMARK  177  A    between atoms: _437  and  _439
REMARK  178  A    between atoms: _439  and  _440
REMARK  179  A    between atoms: _439  and  _442
REMARK  180  A    between atoms: _445  and  _447
REMARK  181  A    between atoms: _447  and  _448
REMARK  182  A    between atoms: _447  and  _450
REMARK  183  A    between atoms: _450  and  _451
REMARK  184  A    between atoms: _457  and  _458
REMARK  185  A    between atoms: _463  and  _465
REMARK  186  A    between atoms: _465  and  _466
REMARK  187  A    between atoms: _468  and  _470
REMARK  188  A    between atoms: _470  and  _471
REMARK  189  A    between atoms: _470  and  _473
REMARK  190  A    between atoms: _473  and  _474
REMARK  191  A    between atoms: _476  and  _478
REMARK  192  A    between atoms: _478  and  _479
REMARK  193  A    between atoms: _478  and  _481
REMARK  194  A    between atoms: _481  and  _482
REMARK  195  A    between atoms: _487  and  _489
REMARK  196  A    between atoms: _489  and  _490
REMARK  197  A    between atoms: _489  and  _492
REMARK  198  A    between atoms: _492  and  _493
REMARK  199  A    between atoms: _493  and  _494
REMARK  200  A    between atoms: _497  and  _499
REMARK  201  A    between atoms: _499  and  _500
REMARK  202  A    between atoms: _499  and  _502
REMARK  203  A    between atoms: _502  and  _503
REMARK  204  A    between atoms: _506  and  _508
REMARK  205  A    between atoms: _508  and  _509
REMARK  206  A    between atoms: _508  and  _511
REMARK  207  A    between atoms: _511  and  _512
REMARK  208  A    between atoms: _515  and  _517
REMARK  209  A    between atoms: _517  and  _518
REMARK  210  A    between atoms: _521  and  _523
REMARK  211  A    between atoms: _523  and  _524
REMARK  212  A    between atoms: _523  and  _526
REMARK  213  A    between atoms: _526  and  _527
REMARK  214  A    between atoms: _530  and  _532
REMARK  215  A    between atoms: _532  and  _533
REMARK  216  A    between atoms: _532  and  _535
REMARK  217  A    between atoms: _535  and  _536
REMARK  218  A    between atoms: _536  and  _537
REMARK  219  A    between atoms: _542  and  _544
REMARK  220  A    between atoms: _544  and  _545
REMARK  221  A    between atoms: _544  and  _547
REMARK  222  A    between atoms: _547  and  _548
REMARK  223  A    between atoms: _548  and  _549
REMARK  224  A    between atoms: _552  and  _554
REMARK  225  A    between atoms: _554  and  _555
REMARK  226  A    between atoms: _558  and  _560
REMARK  227  A    between atoms: _560  and  _561
REMARK  228  A    between atoms: _560  and  _563
REMARK  229  A    between atoms: _563  and  _564
REMARK  230  A    between atoms: _567  and  _569
REMARK  231  A    between atoms: _569  and  _570
REMARK  232  A    between atoms: _569  and  _572
REMARK  233  A    between atoms: _572  and  _573
REMARK  234  A    between atoms: _578  and  _580
REMARK  235  A    between atoms: _580  and  _581
REMARK  236  A    between atoms: _580  and  _583
REMARK  237  A    between atoms: _583  and  _584
REMARK  238  A    between atoms: _586  and  _588
REMARK  239  A    between atoms: _588  and  _589
REMARK  240  A    between atoms: _592  and  _594
REMARK  241  A    between atoms: _594  and  _595
REMARK  242  A    between atoms: _598  and  _600
REMARK  243  A    between atoms: _600  and  _601
REMARK  244  A    between atoms: _603  and  _605
REMARK  245  A    between atoms: _605  and  _606
REMARK  246  A    between atoms: _605  and  _608
REMARK  247  A    between atoms: _608  and  _609
REMARK  248  A    between atoms: _612  and  _614
REMARK  249  A    between atoms: _614  and  _615
REMARK  250  A    between atoms: _617  and  _619
REMARK  251  A    between atoms: _619  and  _620
REMARK  252  A    between atoms: _619  and  _622
REMARK  253  A    between atoms: _622  and  _623
REMARK  254  A    between atoms: _628  and  _630
REMARK  255  A    between atoms: _630  and  _631
REMARK  256  A    between atoms: _634  and  _636
REMARK  257  A    between atoms: _636  and  _637
REMARK  258  A    between atoms: _636  and  _639
REMARK  259  A    between atoms: _639  and  _640
REMARK  260  A    between atoms: _640  and  _641
REMARK  261  A    between atoms: _646  and  _648
REMARK  262  A    between atoms: _648  and  _649
REMARK  263  A    between atoms: _648  and  _651
REMARK  264  A    between atoms: _651  and  _652
REMARK  265  A    between atoms: _655  and  _657
REMARK  266  A    between atoms: _657  and  _658
REMARK  267  A    between atoms: _657  and  _660
REMARK  268  A    between atoms: _660  and  _661
REMARK                            x       y       z     vdW  Elec       q    Type
REMARK                         _______ _______ _______ _____ _____    ______ ____
ROOT
ATOM      1  O   HOH     1     113.049  51.063  88.145  0.00  0.00    +0.000 OA
ENDROOT
TORSDOF 0
