REMARK  Name = ../refined-set-2016/2qrq/2qrq_pocket.pdb
REMARK  264 active torsions:
REMARK  status: ('A' for Active; 'I' for Inactive)
REMARK    1  A    between atoms: _1  and  _3
REMARK    2  A    between atoms: _3  and  _4
REMARK    3  A    between atoms: _3  and  _6
REMARK    4  A    between atoms: _6  and  _7
REMARK    5  A    between atoms: _12  and  _13
REMARK    6  A    between atoms: _15  and  _17
REMARK    7  A    between atoms: _17  and  _18
REMARK    8  A    between atoms: _17  and  _20
REMARK    9  A    between atoms: _20  and  _21
REMARK   10  A    between atoms: _24  and  _26
REMARK   11  A    between atoms: _26  and  _27
REMARK   12  A    between atoms: _26  and  _29
REMARK   13  A    between atoms: _29  and  _30
REMARK   14  A    between atoms: _30  and  _31
REMARK   15  A    between atoms: _34  and  _36
REMARK   16  A    between atoms: _36  and  _37
REMARK   17  A    between atoms: _39  and  _41
REMARK   18  A    between atoms: _41  and  _42
REMARK   19  A    between atoms: _41  and  _44
REMARK   20  A    between atoms: _44  and  _45
REMARK   21  A    between atoms: _50  and  _52
REMARK   22  A    between atoms: _52  and  _53
REMARK   23  A    between atoms: _55  and  _57
REMARK   24  A    between atoms: _57  and  _58
REMARK   25  A    between atoms: _60  and  _62
REMARK   26  A    between atoms: _62  and  _63
REMARK   27  A    between atoms: _62  and  _65
REMARK   28  A    between atoms: _65  and  _66
REMARK   29  A    between atoms: _69  and  _71
REMARK   30  A    between atoms: _71  and  _72
REMARK   31  A    between atoms: _74  and  _76
REMARK   32  A    between atoms: _76  and  _77
REMARK   33  A    between atoms: _76  and  _79
REMARK   34  A    between atoms: _79  and  _80
REMARK   35  A    between atoms: _80  and  _81
REMARK   36  A    between atoms: _81  and  _82
REMARK   37  A    between atoms: _91  and  _93
REMARK   38  A    between atoms: _93  and  _94
REMARK   39  A    between atoms: _93  and  _96
REMARK   40  A    between atoms: _96  and  _97
REMARK   41  A    between atoms: _100  and  _102
REMARK   42  A    between atoms: _102  and  _103
REMARK   43  A    between atoms: _106  and  _108
REMARK   44  A    between atoms: _108  and  _109
REMARK   45  A    between atoms: _108  and  _111
REMARK   46  A    between atoms: _111  and  _112
REMARK   47  A    between atoms: _118  and  _120
REMARK   48  A    between atoms: _120  and  _121
REMARK   49  A    between atoms: _120  and  _123
REMARK   50  A    between atoms: _123  and  _124
REMARK   51  A    between atoms: _127  and  _129
REMARK   52  A    between atoms: _129  and  _130
REMARK   53  A    between atoms: _129  and  _132
REMARK   54  A    between atoms: _132  and  _133
REMARK   55  A    between atoms: _138  and  _139
REMARK   56  A    between atoms: _142  and  _143
REMARK   57  A    between atoms: _148  and  _150
REMARK   58  A    between atoms: _150  and  _151
REMARK   59  A    between atoms: _150  and  _153
REMARK   60  A    between atoms: _153  and  _154
REMARK   61  A    between atoms: _159  and  _161
REMARK   62  A    between atoms: _161  and  _162
REMARK   63  A    between atoms: _161  and  _164
REMARK   64  A    between atoms: _164  and  _165
REMARK   65  A    between atoms: _168  and  _170
REMARK   66  A    between atoms: _170  and  _171
REMARK   67  A    between atoms: _170  and  _173
REMARK   68  A    between atoms: _173  and  _174
REMARK   69  A    between atoms: _179  and  _181
REMARK   70  A    between atoms: _181  and  _182
REMARK   71  A    between atoms: _181  and  _184
REMARK   72  A    between atoms: _184  and  _185
REMARK   73  A    between atoms: _191  and  _193
REMARK   74  A    between atoms: _193  and  _194
REMARK   75  A    between atoms: _193  and  _196
REMARK   76  A    between atoms: _196  and  _197
REMARK   77  A    between atoms: _203  and  _205
REMARK   78  A    between atoms: _205  and  _206
REMARK   79  A    between atoms: _205  and  _208
REMARK   80  A    between atoms: _208  and  _209
REMARK   81  A    between atoms: _209  and  _210
REMARK   82  A    between atoms: _213  and  _215
REMARK   83  A    between atoms: _215  and  _216
REMARK   84  A    between atoms: _215  and  _218
REMARK   85  A    between atoms: _218  and  _219
REMARK   86  A    between atoms: _219  and  _220
REMARK   87  A    between atoms: _220  and  _221
REMARK   88  A    between atoms: _230  and  _232
REMARK   89  A    between atoms: _232  and  _233
REMARK   90  A    between atoms: _232  and  _235
REMARK   91  A    between atoms: _235  and  _236
REMARK   92  A    between atoms: _236  and  _237
REMARK   93  A    between atoms: _240  and  _242
REMARK   94  A    between atoms: _242  and  _243
REMARK   95  A    between atoms: _242  and  _245
REMARK   96  A    between atoms: _245  and  _246
REMARK   97  A    between atoms: _251  and  _253
REMARK   98  A    between atoms: _253  and  _254
REMARK   99  A    between atoms: _253  and  _256
REMARK  100  A    between atoms: _256  and  _257
REMARK  101  A    between atoms: _260  and  _262
REMARK  102  A    between atoms: _262  and  _263
REMARK  103  A    between atoms: _262  and  _265
REMARK  104  A    between atoms: _265  and  _266
REMARK  105  A    between atoms: _269  and  _271
REMARK  106  A    between atoms: _271  and  _272
REMARK  107  A    between atoms: _271  and  _274
REMARK  108  A    between atoms: _274  and  _275
REMARK  109  A    between atoms: _280  and  _282
REMARK  110  A    between atoms: _282  and  _283
REMARK  111  A    between atoms: _282  and  _285
REMARK  112  A    between atoms: _285  and  _286
REMARK  113  A    between atoms: _289  and  _291
REMARK  114  A    between atoms: _291  and  _292
REMARK  115  A    between atoms: _291  and  _294
REMARK  116  A    between atoms: _294  and  _295
REMARK  117  A    between atoms: _300  and  _302
REMARK  118  A    between atoms: _302  and  _303
REMARK  119  A    between atoms: _302  and  _305
REMARK  120  A    between atoms: _305  and  _306
REMARK  121  A    between atoms: _311  and  _313
REMARK  122  A    between atoms: _313  and  _314
REMARK  123  A    between atoms: _313  and  _316
REMARK  124  A    between atoms: _316  and  _317
REMARK  125  A    between atoms: _320  and  _322
REMARK  126  A    between atoms: _322  and  _323
REMARK  127  A    between atoms: _322  and  _325
REMARK  128  A    between atoms: _328  and  _330
REMARK  129  A    between atoms: _330  and  _331
REMARK  130  A    between atoms: _330  and  _333
REMARK  131  A    between atoms: _333  and  _334
REMARK  132  A    between atoms: _337  and  _339
REMARK  133  A    between atoms: _339  and  _340
REMARK  134  A    between atoms: _343  and  _345
REMARK  135  A    between atoms: _345  and  _346
REMARK  136  A    between atoms: _345  and  _348
REMARK  137  A    between atoms: _348  and  _349
REMARK  138  A    between atoms: _352  and  _354
REMARK  139  A    between atoms: _354  and  _355
REMARK  140  A    between atoms: _354  and  _357
REMARK  141  A    between atoms: _357  and  _358
REMARK  142  A    between atoms: _358  and  _359
REMARK  143  A    between atoms: _362  and  _364
REMARK  144  A    between atoms: _364  and  _365
REMARK  145  A    between atoms: _364  and  _367
REMARK  146  A    between atoms: _367  and  _368
REMARK  147  A    between atoms: _373  and  _375
REMARK  148  A    between atoms: _375  and  _376
REMARK  149  A    between atoms: _378  and  _380
REMARK  150  A    between atoms: _380  and  _381
REMARK  151  A    between atoms: _380  and  _383
REMARK  152  A    between atoms: _386  and  _388
REMARK  153  A    between atoms: _388  and  _389
REMARK  154  A    between atoms: _392  and  _394
REMARK  155  A    between atoms: _394  and  _395
REMARK  156  A    between atoms: _394  and  _397
REMARK  157  A    between atoms: _397  and  _398
REMARK  158  A    between atoms: _403  and  _405
REMARK  159  A    between atoms: _405  and  _406
REMARK  160  A    between atoms: _405  and  _408
REMARK  161  A    between atoms: _408  and  _409
REMARK  162  A    between atoms: _409  and  _410
REMARK  163  A    between atoms: _410  and  _411
REMARK  164  A    between atoms: _411  and  _412
REMARK  165  A    between atoms: _416  and  _418
REMARK  166  A    between atoms: _418  and  _419
REMARK  167  A    between atoms: _418  and  _421
REMARK  168  A    between atoms: _421  and  _422
REMARK  169  A    between atoms: _425  and  _427
REMARK  170  A    between atoms: _427  and  _428
REMARK  171  A    between atoms: _427  and  _430
REMARK  172  A    between atoms: _430  and  _431
REMARK  173  A    between atoms: _436  and  _438
REMARK  174  A    between atoms: _438  and  _439
REMARK  175  A    between atoms: _441  and  _443
REMARK  176  A    between atoms: _443  and  _444
REMARK  177  A    between atoms: _443  and  _446
REMARK  178  A    between atoms: _446  and  _447
REMARK  179  A    between atoms: _447  and  _448
REMARK  180  A    between atoms: _448  and  _449
REMARK  181  A    between atoms: _449  and  _450
REMARK  182  A    between atoms: _454  and  _456
REMARK  183  A    between atoms: _456  and  _457
REMARK  184  A    between atoms: _456  and  _459
REMARK  185  A    between atoms: _459  and  _460
REMARK  186  A    between atoms: _460  and  _461
REMARK  187  A    between atoms: _461  and  _462
REMARK  188  A    between atoms: _471  and  _473
REMARK  189  A    between atoms: _473  and  _474
REMARK  190  A    between atoms: _473  and  _476
REMARK  191  A    between atoms: _476  and  _477
REMARK  192  A    between atoms: _482  and  _484
REMARK  193  A    between atoms: _484  and  _485
REMARK  194  A    between atoms: _484  and  _487
REMARK  195  A    between atoms: _487  and  _488
REMARK  196  A    between atoms: _493  and  _494
REMARK  197  A    between atoms: _496  and  _498
REMARK  198  A    between atoms: _498  and  _499
REMARK  199  A    between atoms: _498  and  _501
REMARK  200  A    between atoms: _501  and  _502
REMARK  201  A    between atoms: _502  and  _503
REMARK  202  A    between atoms: _503  and  _504
REMARK  203  A    between atoms: _504  and  _505
REMARK  204  A    between atoms: _509  and  _511
REMARK  205  A    between atoms: _511  and  _512
REMARK  206  A    between atoms: _511  and  _514
REMARK  207  A    between atoms: _514  and  _515
REMARK  208  A    between atoms: _517  and  _519
REMARK  209  A    between atoms: _519  and  _520
REMARK  210  A    between atoms: _519  and  _522
REMARK  211  A    between atoms: _522  and  _523
REMARK  212  A    between atoms: _526  and  _528
REMARK  213  A    between atoms: _528  and  _529
REMARK  214  A    between atoms: _528  and  _531
REMARK  215  A    between atoms: _531  and  _532
REMARK  216  A    between atoms: _532  and  _533
REMARK  217  A    between atoms: _536  and  _538
REMARK  218  A    between atoms: _538  and  _539
REMARK  219  A    between atoms: _542  and  _544
REMARK  220  A    between atoms: _544  and  _545
REMARK  221  A    between atoms: _544  and  _547
REMARK  222  A    between atoms: _547  and  _548
REMARK  223  A    between atoms: _550  and  _552
REMARK  224  A    between atoms: _552  and  _553
REMARK  225  A    between atoms: _555  and  _557
REMARK  226  A    between atoms: _557  and  _558
REMARK  227  A    between atoms: _557  and  _560
REMARK  228  A    between atoms: _560  and  _561
REMARK  229  A    between atoms: _564  and  _566
REMARK  230  A    between atoms: _566  and  _567
REMARK  231  A    between atoms: _569  and  _571
REMARK  232  A    between atoms: _571  and  _572
REMARK  233  A    between atoms: _571  and  _574
REMARK  234  A    between atoms: _574  and  _575
REMARK  235  A    between atoms: _580  and  _582
REMARK  236  A    between atoms: _582  and  _583
REMARK  237  A    between atoms: _582  and  _585
REMARK  238  A    between atoms: _585  and  _586
REMARK  239  A    between atoms: _586  and  _587
REMARK  240  A    between atoms: _594  and  _595
REMARK  241  A    between atoms: _595  and  _611
REMARK  242  A    between atoms: _596  and  _598
REMARK  243  A    between atoms: _598  and  _599
REMARK  244  A    between atoms: _599  and  _600
REMARK  245  A    between atoms: _604  and  _606
REMARK  246  A    between atoms: _606  and  _607
REMARK  247  A    between atoms: _606  and  _614
REMARK  248  A    between atoms: _607  and  _608
REMARK  249  A    between atoms: _608  and  _609
REMARK  250  A    between atoms: _609  and  _610
REMARK  251  A    between atoms: _610  and  _611
REMARK  252  A    between atoms: _616  and  _618
REMARK  253  A    between atoms: _618  and  _619
REMARK  254  A    between atoms: _618  and  _621
REMARK  255  A    between atoms: _621  and  _622
REMARK  256  A    between atoms: _625  and  _627
REMARK  257  A    between atoms: _627  and  _628
REMARK  258  A    between atoms: _630  and  _632
REMARK  259  A    between atoms: _632  and  _633
REMARK  260  A    between atoms: _636  and  _638
REMARK  261  A    between atoms: _638  and  _639
REMARK  262  A    between atoms: _638  and  _641
REMARK  263  A    between atoms: _641  and  _642
REMARK  264  A    between atoms: _647  and  _648
REMARK                            x       y       z     vdW  Elec       q    Type
REMARK                         _______ _______ _______ _____ _____    ______ ____
ROOT
ATOM      1  CG  TYR A   1      32.844  11.067  35.795  0.00  0.00    -0.020 A 
ATOM      2  CD2 TYR A   1      32.373  12.374  35.919  0.00  0.00    -0.001 A 
ATOM      3  CE2 TYR A   1      32.397  13.250  34.837  0.00  0.00    +0.036 A 
ATOM      4  CZ  TYR A   1      32.904  12.824  33.622  0.00  0.00    +0.134 A 
ATOM      5  CE1 TYR A   1      33.378  11.533  33.470  0.00  0.00    +0.036 A 
ATOM      6  CD1 TYR A   1      33.349  10.660  34.558  0.00  0.00    -0.001 A 
ENDROOT
BRANCH   4   7
ATOM      7  OH  TYR A   1      32.924  13.689  32.549  0.00  0.00    -0.506 OA
ATOM      8  HH  TYR A   1      33.472  14.482  32.776  0.00  0.00    +0.292 HD
ENDBRANCH   4   7
BRANCH   1   9
ATOM      9  CB  TYR A   1      32.828  10.125  36.972  0.00  0.00    +0.051 C 
BRANCH   9  10
ATOM     10  CA  TYR A   1      34.151  10.113  37.742  0.00  0.00    +0.137 C 
BRANCH  10  11
ATOM     11  N   TYR A   1      34.208   8.983  38.645  0.00  0.00    -0.239 NA
ATOM     12  H   TYR A   1      33.381   8.774  39.241  0.00  0.00    +0.142 HD
ENDBRANCH  10  11
BRANCH  10  13
ATOM     13  C   TYR A   1      34.334  11.387  38.550  0.00  0.00    +0.224 C 
ATOM     14  O   TYR A   1      33.419  11.833  39.247  0.00  0.00    -0.287 OA
ENDBRANCH  10  13
ENDBRANCH   9  10
ENDBRANCH   1   9
TORSDOF 5
REMARK  Name = ../refined-set-2016/2qrq/2qrq_pocket.pdb
REMARK  264 active torsions:
REMARK  status: ('A' for Active; 'I' for Inactive)
REMARK    1  A    between atoms: _1  and  _3
REMARK    2  A    between atoms: _3  and  _4
REMARK    3  A    between atoms: _3  and  _6
REMARK    4  A    between atoms: _6  and  _7
REMARK    5  A    between atoms: _12  and  _13
REMARK    6  A    between atoms: _15  and  _17
REMARK    7  A    between atoms: _17  and  _18
REMARK    8  A    between atoms: _17  and  _20
REMARK    9  A    between atoms: _20  and  _21
REMARK   10  A    between atoms: _24  and  _26
REMARK   11  A    between atoms: _26  and  _27
REMARK   12  A    between atoms: _26  and  _29
REMARK   13  A    between atoms: _29  and  _30
REMARK   14  A    between atoms: _30  and  _31
REMARK   15  A    between atoms: _34  and  _36
REMARK   16  A    between atoms: _36  and  _37
REMARK   17  A    between atoms: _39  and  _41
REMARK   18  A    between atoms: _41  and  _42
REMARK   19  A    between atoms: _41  and  _44
REMARK   20  A    between atoms: _44  and  _45
REMARK   21  A    between atoms: _50  and  _52
REMARK   22  A    between atoms: _52  and  _53
REMARK   23  A    between atoms: _55  and  _57
REMARK   24  A    between atoms: _57  and  _58
REMARK   25  A    between atoms: _60  and  _62
REMARK   26  A    between atoms: _62  and  _63
REMARK   27  A    between atoms: _62  and  _65
REMARK   28  A    between atoms: _65  and  _66
REMARK   29  A    between atoms: _69  and  _71
REMARK   30  A    between atoms: _71  and  _72
REMARK   31  A    between atoms: _74  and  _76
REMARK   32  A    between atoms: _76  and  _77
REMARK   33  A    between atoms: _76  and  _79
REMARK   34  A    between atoms: _79  and  _80
REMARK   35  A    between atoms: _80  and  _81
REMARK   36  A    between atoms: _81  and  _82
REMARK   37  A    between atoms: _91  and  _93
REMARK   38  A    between atoms: _93  and  _94
REMARK   39  A    between atoms: _93  and  _96
REMARK   40  A    between atoms: _96  and  _97
REMARK   41  A    between atoms: _100  and  _102
REMARK   42  A    between atoms: _102  and  _103
REMARK   43  A    between atoms: _106  and  _108
REMARK   44  A    between atoms: _108  and  _109
REMARK   45  A    between atoms: _108  and  _111
REMARK   46  A    between atoms: _111  and  _112
REMARK   47  A    between atoms: _118  and  _120
REMARK   48  A    between atoms: _120  and  _121
REMARK   49  A    between atoms: _120  and  _123
REMARK   50  A    between atoms: _123  and  _124
REMARK   51  A    between atoms: _127  and  _129
REMARK   52  A    between atoms: _129  and  _130
REMARK   53  A    between atoms: _129  and  _132
REMARK   54  A    between atoms: _132  and  _133
REMARK   55  A    between atoms: _138  and  _139
REMARK   56  A    between atoms: _142  and  _143
REMARK   57  A    between atoms: _148  and  _150
REMARK   58  A    between atoms: _150  and  _151
REMARK   59  A    between atoms: _150  and  _153
REMARK   60  A    between atoms: _153  and  _154
REMARK   61  A    between atoms: _159  and  _161
REMARK   62  A    between atoms: _161  and  _162
REMARK   63  A    between atoms: _161  and  _164
REMARK   64  A    between atoms: _164  and  _165
REMARK   65  A    between atoms: _168  and  _170
REMARK   66  A    between atoms: _170  and  _171
REMARK   67  A    between atoms: _170  and  _173
REMARK   68  A    between atoms: _173  and  _174
REMARK   69  A    between atoms: _179  and  _181
REMARK   70  A    between atoms: _181  and  _182
REMARK   71  A    between atoms: _181  and  _184
REMARK   72  A    between atoms: _184  and  _185
REMARK   73  A    between atoms: _191  and  _193
REMARK   74  A    between atoms: _193  and  _194
REMARK   75  A    between atoms: _193  and  _196
REMARK   76  A    between atoms: _196  and  _197
REMARK   77  A    between atoms: _203  and  _205
REMARK   78  A    between atoms: _205  and  _206
REMARK   79  A    between atoms: _205  and  _208
REMARK   80  A    between atoms: _208  and  _209
REMARK   81  A    between atoms: _209  and  _210
REMARK   82  A    between atoms: _213  and  _215
REMARK   83  A    between atoms: _215  and  _216
REMARK   84  A    between atoms: _215  and  _218
REMARK   85  A    between atoms: _218  and  _219
REMARK   86  A    between atoms: _219  and  _220
REMARK   87  A    between atoms: _220  and  _221
REMARK   88  A    between atoms: _230  and  _232
REMARK   89  A    between atoms: _232  and  _233
REMARK   90  A    between atoms: _232  and  _235
REMARK   91  A    between atoms: _235  and  _236
REMARK   92  A    between atoms: _236  and  _237
REMARK   93  A    between atoms: _240  and  _242
REMARK   94  A    between atoms: _242  and  _243
REMARK   95  A    between atoms: _242  and  _245
REMARK   96  A    between atoms: _245  and  _246
REMARK   97  A    between atoms: _251  and  _253
REMARK   98  A    between atoms: _253  and  _254
REMARK   99  A    between atoms: _253  and  _256
REMARK  100  A    between atoms: _256  and  _257
REMARK  101  A    between atoms: _260  and  _262
REMARK  102  A    between atoms: _262  and  _263
REMARK  103  A    between atoms: _262  and  _265
REMARK  104  A    between atoms: _265  and  _266
REMARK  105  A    between atoms: _269  and  _271
REMARK  106  A    between atoms: _271  and  _272
REMARK  107  A    between atoms: _271  and  _274
REMARK  108  A    between atoms: _274  and  _275
REMARK  109  A    between atoms: _280  and  _282
REMARK  110  A    between atoms: _282  and  _283
REMARK  111  A    between atoms: _282  and  _285
REMARK  112  A    between atoms: _285  and  _286
REMARK  113  A    between atoms: _289  and  _291
REMARK  114  A    between atoms: _291  and  _292
REMARK  115  A    between atoms: _291  and  _294
REMARK  116  A    between atoms: _294  and  _295
REMARK  117  A    between atoms: _300  and  _302
REMARK  118  A    between atoms: _302  and  _303
REMARK  119  A    between atoms: _302  and  _305
REMARK  120  A    between atoms: _305  and  _306
REMARK  121  A    between atoms: _311  and  _313
REMARK  122  A    between atoms: _313  and  _314
REMARK  123  A    between atoms: _313  and  _316
REMARK  124  A    between atoms: _316  and  _317
REMARK  125  A    between atoms: _320  and  _322
REMARK  126  A    between atoms: _322  and  _323
REMARK  127  A    between atoms: _322  and  _325
REMARK  128  A    between atoms: _328  and  _330
REMARK  129  A    between atoms: _330  and  _331
REMARK  130  A    between atoms: _330  and  _333
REMARK  131  A    between atoms: _333  and  _334
REMARK  132  A    between atoms: _337  and  _339
REMARK  133  A    between atoms: _339  and  _340
REMARK  134  A    between atoms: _343  and  _345
REMARK  135  A    between atoms: _345  and  _346
REMARK  136  A    between atoms: _345  and  _348
REMARK  137  A    between atoms: _348  and  _349
REMARK  138  A    between atoms: _352  and  _354
REMARK  139  A    between atoms: _354  and  _355
REMARK  140  A    between atoms: _354  and  _357
REMARK  141  A    between atoms: _357  and  _358
REMARK  142  A    between atoms: _358  and  _359
REMARK  143  A    between atoms: _362  and  _364
REMARK  144  A    between atoms: _364  and  _365
REMARK  145  A    between atoms: _364  and  _367
REMARK  146  A    between atoms: _367  and  _368
REMARK  147  A    between atoms: _373  and  _375
REMARK  148  A    between atoms: _375  and  _376
REMARK  149  A    between atoms: _378  and  _380
REMARK  150  A    between atoms: _380  and  _381
REMARK  151  A    between atoms: _380  and  _383
REMARK  152  A    between atoms: _386  and  _388
REMARK  153  A    between atoms: _388  and  _389
REMARK  154  A    between atoms: _392  and  _394
REMARK  155  A    between atoms: _394  and  _395
REMARK  156  A    between atoms: _394  and  _397
REMARK  157  A    between atoms: _397  and  _398
REMARK  158  A    between atoms: _403  and  _405
REMARK  159  A    between atoms: _405  and  _406
REMARK  160  A    between atoms: _405  and  _408
REMARK  161  A    between atoms: _408  and  _409
REMARK  162  A    between atoms: _409  and  _410
REMARK  163  A    between atoms: _410  and  _411
REMARK  164  A    between atoms: _411  and  _412
REMARK  165  A    between atoms: _416  and  _418
REMARK  166  A    between atoms: _418  and  _419
REMARK  167  A    between atoms: _418  and  _421
REMARK  168  A    between atoms: _421  and  _422
REMARK  169  A    between atoms: _425  and  _427
REMARK  170  A    between atoms: _427  and  _428
REMARK  171  A    between atoms: _427  and  _430
REMARK  172  A    between atoms: _430  and  _431
REMARK  173  A    between atoms: _436  and  _438
REMARK  174  A    between atoms: _438  and  _439
REMARK  175  A    between atoms: _441  and  _443
REMARK  176  A    between atoms: _443  and  _444
REMARK  177  A    between atoms: _443  and  _446
REMARK  178  A    between atoms: _446  and  _447
REMARK  179  A    between atoms: _447  and  _448
REMARK  180  A    between atoms: _448  and  _449
REMARK  181  A    between atoms: _449  and  _450
REMARK  182  A    between atoms: _454  and  _456
REMARK  183  A    between atoms: _456  and  _457
REMARK  184  A    between atoms: _456  and  _459
REMARK  185  A    between atoms: _459  and  _460
REMARK  186  A    between atoms: _460  and  _461
REMARK  187  A    between atoms: _461  and  _462
REMARK  188  A    between atoms: _471  and  _473
REMARK  189  A    between atoms: _473  and  _474
REMARK  190  A    between atoms: _473  and  _476
REMARK  191  A    between atoms: _476  and  _477
REMARK  192  A    between atoms: _482  and  _484
REMARK  193  A    between atoms: _484  and  _485
REMARK  194  A    between atoms: _484  and  _487
REMARK  195  A    between atoms: _487  and  _488
REMARK  196  A    between atoms: _493  and  _494
REMARK  197  A    between atoms: _496  and  _498
REMARK  198  A    between atoms: _498  and  _499
REMARK  199  A    between atoms: _498  and  _501
REMARK  200  A    between atoms: _501  and  _502
REMARK  201  A    between atoms: _502  and  _503
REMARK  202  A    between atoms: _503  and  _504
REMARK  203  A    between atoms: _504  and  _505
REMARK  204  A    between atoms: _509  and  _511
REMARK  205  A    between atoms: _511  and  _512
REMARK  206  A    between atoms: _511  and  _514
REMARK  207  A    between atoms: _514  and  _515
REMARK  208  A    between atoms: _517  and  _519
REMARK  209  A    between atoms: _519  and  _520
REMARK  210  A    between atoms: _519  and  _522
REMARK  211  A    between atoms: _522  and  _523
REMARK  212  A    between atoms: _526  and  _528
REMARK  213  A    between atoms: _528  and  _529
REMARK  214  A    between atoms: _528  and  _531
REMARK  215  A    between atoms: _531  and  _532
REMARK  216  A    between atoms: _532  and  _533
REMARK  217  A    between atoms: _536  and  _538
REMARK  218  A    between atoms: _538  and  _539
REMARK  219  A    between atoms: _542  and  _544
REMARK  220  A    between atoms: _544  and  _545
REMARK  221  A    between atoms: _544  and  _547
REMARK  222  A    between atoms: _547  and  _548
REMARK  223  A    between atoms: _550  and  _552
REMARK  224  A    between atoms: _552  and  _553
REMARK  225  A    between atoms: _555  and  _557
REMARK  226  A    between atoms: _557  and  _558
REMARK  227  A    between atoms: _557  and  _560
REMARK  228  A    between atoms: _560  and  _561
REMARK  229  A    between atoms: _564  and  _566
REMARK  230  A    between atoms: _566  and  _567
REMARK  231  A    between atoms: _569  and  _571
REMARK  232  A    between atoms: _571  and  _572
REMARK  233  A    between atoms: _571  and  _574
REMARK  234  A    between atoms: _574  and  _575
REMARK  235  A    between atoms: _580  and  _582
REMARK  236  A    between atoms: _582  and  _583
REMARK  237  A    between atoms: _582  and  _585
REMARK  238  A    between atoms: _585  and  _586
REMARK  239  A    between atoms: _586  and  _587
REMARK  240  A    between atoms: _594  and  _595
REMARK  241  A    between atoms: _595  and  _611
REMARK  242  A    between atoms: _596  and  _598
REMARK  243  A    between atoms: _598  and  _599
REMARK  244  A    between atoms: _599  and  _600
REMARK  245  A    between atoms: _604  and  _606
REMARK  246  A    between atoms: _606  and  _607
REMARK  247  A    between atoms: _606  and  _614
REMARK  248  A    between atoms: _607  and  _608
REMARK  249  A    between atoms: _608  and  _609
REMARK  250  A    between atoms: _609  and  _610
REMARK  251  A    between atoms: _610  and  _611
REMARK  252  A    between atoms: _616  and  _618
REMARK  253  A    between atoms: _618  and  _619
REMARK  254  A    between atoms: _618  and  _621
REMARK  255  A    between atoms: _621  and  _622
REMARK  256  A    between atoms: _625  and  _627
REMARK  257  A    between atoms: _627  and  _628
REMARK  258  A    between atoms: _630  and  _632
REMARK  259  A    between atoms: _632  and  _633
REMARK  260  A    between atoms: _636  and  _638
REMARK  261  A    between atoms: _638  and  _639
REMARK  262  A    between atoms: _638  and  _641
REMARK  263  A    between atoms: _641  and  _642
REMARK  264  A    between atoms: _647  and  _648
REMARK                            x       y       z     vdW  Elec       q    Type
REMARK                         _______ _______ _______ _____ _____    ______ ____
ROOT
ATOM      1  C   LEU A   1      33.273  20.589  39.611  0.00  0.00    +0.238 C 
ATOM      2  O   LEU A   1      32.859  21.548  40.262  0.00  0.00    -0.274 OA
ATOM      3  N   GLU A   2      32.556  19.985  38.665  0.00  0.00    -0.298 N 
ATOM      4  H   GLU A   2      32.947  19.143  38.197  0.00  0.00    +0.150 HD
ENDROOT
BRANCH   1   5
ATOM      5  CA  LEU A   1      34.661  20.014  39.868  0.00  0.00    +0.145 C 
BRANCH   5   6
ATOM      6  N   LEU A   1      34.892  18.857  39.017  0.00  0.00    -0.238 NA
ATOM      7  H   LEU A   1      35.409  18.969  38.121  0.00  0.00    +0.142 HD
ENDBRANCH   5   6
BRANCH   5   8
ATOM      8  CB  LEU A   1      35.749  21.072  39.651  0.00  0.00    +0.026 C 
BRANCH   8   9
ATOM      9  CG  LEU A   1      37.008  20.929  40.524  0.00  0.00    +0.002 C 
ATOM     10  CD2 LEU A   1      36.736  21.361  41.966  0.00  0.00    +0.000 C 
ATOM     11  CD1 LEU A   1      37.587  19.511  40.492  0.00  0.00    +0.000 C 
ENDBRANCH   8   9
ENDBRANCH   5   8
ENDBRANCH   1   5
BRANCH   3  12
ATOM     12  CA  GLU A   2      31.238  20.468  38.265  0.00  0.00    +0.137 C 
BRANCH  12  13
ATOM     13  C   GLU A   2      30.252  19.335  38.005  0.00  0.00    +0.227 C 
ATOM     14  O   GLU A   2      30.555  18.392  37.277  0.00  0.00    -0.286 OA
ENDBRANCH  12  13
BRANCH  12  15
ATOM     15  CB  GLU A   2      31.343  21.336  37.013  0.00  0.00    +0.039 C 
BRANCH  15  16
ATOM     16  CG  GLU A   2      32.040  22.668  37.222  0.00  0.00    +0.116 C 
BRANCH  16  17
ATOM     17  CD  GLU A   2      31.964  23.567  36.009  0.00  0.00    +0.365 C 
ATOM     18  OE2 GLU A   2      32.877  24.402  35.834  0.00  0.00    -0.246 OA
ATOM     19  OE1 GLU A   2      30.992  23.444  35.234  0.00  0.00    -0.246 OA
ENDBRANCH  16  17
ENDBRANCH  15  16
ENDBRANCH  12  15
ENDBRANCH   3  12
TORSDOF 9
REMARK  Name = ../refined-set-2016/2qrq/2qrq_pocket.pdb
REMARK  264 active torsions:
REMARK  status: ('A' for Active; 'I' for Inactive)
REMARK    1  A    between atoms: _1  and  _3
REMARK    2  A    between atoms: _3  and  _4
REMARK    3  A    between atoms: _3  and  _6
REMARK    4  A    between atoms: _6  and  _7
REMARK    5  A    between atoms: _12  and  _13
REMARK    6  A    between atoms: _15  and  _17
REMARK    7  A    between atoms: _17  and  _18
REMARK    8  A    between atoms: _17  and  _20
REMARK    9  A    between atoms: _20  and  _21
REMARK   10  A    between atoms: _24  and  _26
REMARK   11  A    between atoms: _26  and  _27
REMARK   12  A    between atoms: _26  and  _29
REMARK   13  A    between atoms: _29  and  _30
REMARK   14  A    between atoms: _30  and  _31
REMARK   15  A    between atoms: _34  and  _36
REMARK   16  A    between atoms: _36  and  _37
REMARK   17  A    between atoms: _39  and  _41
REMARK   18  A    between atoms: _41  and  _42
REMARK   19  A    between atoms: _41  and  _44
REMARK   20  A    between atoms: _44  and  _45
REMARK   21  A    between atoms: _50  and  _52
REMARK   22  A    between atoms: _52  and  _53
REMARK   23  A    between atoms: _55  and  _57
REMARK   24  A    between atoms: _57  and  _58
REMARK   25  A    between atoms: _60  and  _62
REMARK   26  A    between atoms: _62  and  _63
REMARK   27  A    between atoms: _62  and  _65
REMARK   28  A    between atoms: _65  and  _66
REMARK   29  A    between atoms: _69  and  _71
REMARK   30  A    between atoms: _71  and  _72
REMARK   31  A    between atoms: _74  and  _76
REMARK   32  A    between atoms: _76  and  _77
REMARK   33  A    between atoms: _76  and  _79
REMARK   34  A    between atoms: _79  and  _80
REMARK   35  A    between atoms: _80  and  _81
REMARK   36  A    between atoms: _81  and  _82
REMARK   37  A    between atoms: _91  and  _93
REMARK   38  A    between atoms: _93  and  _94
REMARK   39  A    between atoms: _93  and  _96
REMARK   40  A    between atoms: _96  and  _97
REMARK   41  A    between atoms: _100  and  _102
REMARK   42  A    between atoms: _102  and  _103
REMARK   43  A    between atoms: _106  and  _108
REMARK   44  A    between atoms: _108  and  _109
REMARK   45  A    between atoms: _108  and  _111
REMARK   46  A    between atoms: _111  and  _112
REMARK   47  A    between atoms: _118  and  _120
REMARK   48  A    between atoms: _120  and  _121
REMARK   49  A    between atoms: _120  and  _123
REMARK   50  A    between atoms: _123  and  _124
REMARK   51  A    between atoms: _127  and  _129
REMARK   52  A    between atoms: _129  and  _130
REMARK   53  A    between atoms: _129  and  _132
REMARK   54  A    between atoms: _132  and  _133
REMARK   55  A    between atoms: _138  and  _139
REMARK   56  A    between atoms: _142  and  _143
REMARK   57  A    between atoms: _148  and  _150
REMARK   58  A    between atoms: _150  and  _151
REMARK   59  A    between atoms: _150  and  _153
REMARK   60  A    between atoms: _153  and  _154
REMARK   61  A    between atoms: _159  and  _161
REMARK   62  A    between atoms: _161  and  _162
REMARK   63  A    between atoms: _161  and  _164
REMARK   64  A    between atoms: _164  and  _165
REMARK   65  A    between atoms: _168  and  _170
REMARK   66  A    between atoms: _170  and  _171
REMARK   67  A    between atoms: _170  and  _173
REMARK   68  A    between atoms: _173  and  _174
REMARK   69  A    between atoms: _179  and  _181
REMARK   70  A    between atoms: _181  and  _182
REMARK   71  A    between atoms: _181  and  _184
REMARK   72  A    between atoms: _184  and  _185
REMARK   73  A    between atoms: _191  and  _193
REMARK   74  A    between atoms: _193  and  _194
REMARK   75  A    between atoms: _193  and  _196
REMARK   76  A    between atoms: _196  and  _197
REMARK   77  A    between atoms: _203  and  _205
REMARK   78  A    between atoms: _205  and  _206
REMARK   79  A    between atoms: _205  and  _208
REMARK   80  A    between atoms: _208  and  _209
REMARK   81  A    between atoms: _209  and  _210
REMARK   82  A    between atoms: _213  and  _215
REMARK   83  A    between atoms: _215  and  _216
REMARK   84  A    between atoms: _215  and  _218
REMARK   85  A    between atoms: _218  and  _219
REMARK   86  A    between atoms: _219  and  _220
REMARK   87  A    between atoms: _220  and  _221
REMARK   88  A    between atoms: _230  and  _232
REMARK   89  A    between atoms: _232  and  _233
REMARK   90  A    between atoms: _232  and  _235
REMARK   91  A    between atoms: _235  and  _236
REMARK   92  A    between atoms: _236  and  _237
REMARK   93  A    between atoms: _240  and  _242
REMARK   94  A    between atoms: _242  and  _243
REMARK   95  A    between atoms: _242  and  _245
REMARK   96  A    between atoms: _245  and  _246
REMARK   97  A    between atoms: _251  and  _253
REMARK   98  A    between atoms: _253  and  _254
REMARK   99  A    between atoms: _253  and  _256
REMARK  100  A    between atoms: _256  and  _257
REMARK  101  A    between atoms: _260  and  _262
REMARK  102  A    between atoms: _262  and  _263
REMARK  103  A    between atoms: _262  and  _265
REMARK  104  A    between atoms: _265  and  _266
REMARK  105  A    between atoms: _269  and  _271
REMARK  106  A    between atoms: _271  and  _272
REMARK  107  A    between atoms: _271  and  _274
REMARK  108  A    between atoms: _274  and  _275
REMARK  109  A    between atoms: _280  and  _282
REMARK  110  A    between atoms: _282  and  _283
REMARK  111  A    between atoms: _282  and  _285
REMARK  112  A    between atoms: _285  and  _286
REMARK  113  A    between atoms: _289  and  _291
REMARK  114  A    between atoms: _291  and  _292
REMARK  115  A    between atoms: _291  and  _294
REMARK  116  A    between atoms: _294  and  _295
REMARK  117  A    between atoms: _300  and  _302
REMARK  118  A    between atoms: _302  and  _303
REMARK  119  A    between atoms: _302  and  _305
REMARK  120  A    between atoms: _305  and  _306
REMARK  121  A    between atoms: _311  and  _313
REMARK  122  A    between atoms: _313  and  _314
REMARK  123  A    between atoms: _313  and  _316
REMARK  124  A    between atoms: _316  and  _317
REMARK  125  A    between atoms: _320  and  _322
REMARK  126  A    between atoms: _322  and  _323
REMARK  127  A    between atoms: _322  and  _325
REMARK  128  A    between atoms: _328  and  _330
REMARK  129  A    between atoms: _330  and  _331
REMARK  130  A    between atoms: _330  and  _333
REMARK  131  A    between atoms: _333  and  _334
REMARK  132  A    between atoms: _337  and  _339
REMARK  133  A    between atoms: _339  and  _340
REMARK  134  A    between atoms: _343  and  _345
REMARK  135  A    between atoms: _345  and  _346
REMARK  136  A    between atoms: _345  and  _348
REMARK  137  A    between atoms: _348  and  _349
REMARK  138  A    between atoms: _352  and  _354
REMARK  139  A    between atoms: _354  and  _355
REMARK  140  A    between atoms: _354  and  _357
REMARK  141  A    between atoms: _357  and  _358
REMARK  142  A    between atoms: _358  and  _359
REMARK  143  A    between atoms: _362  and  _364
REMARK  144  A    between atoms: _364  and  _365
REMARK  145  A    between atoms: _364  and  _367
REMARK  146  A    between atoms: _367  and  _368
REMARK  147  A    between atoms: _373  and  _375
REMARK  148  A    between atoms: _375  and  _376
REMARK  149  A    between atoms: _378  and  _380
REMARK  150  A    between atoms: _380  and  _381
REMARK  151  A    between atoms: _380  and  _383
REMARK  152  A    between atoms: _386  and  _388
REMARK  153  A    between atoms: _388  and  _389
REMARK  154  A    between atoms: _392  and  _394
REMARK  155  A    between atoms: _394  and  _395
REMARK  156  A    between atoms: _394  and  _397
REMARK  157  A    between atoms: _397  and  _398
REMARK  158  A    between atoms: _403  and  _405
REMARK  159  A    between atoms: _405  and  _406
REMARK  160  A    between atoms: _405  and  _408
REMARK  161  A    between atoms: _408  and  _409
REMARK  162  A    between atoms: _409  and  _410
REMARK  163  A    between atoms: _410  and  _411
REMARK  164  A    between atoms: _411  and  _412
REMARK  165  A    between atoms: _416  and  _418
REMARK  166  A    between atoms: _418  and  _419
REMARK  167  A    between atoms: _418  and  _421
REMARK  168  A    between atoms: _421  and  _422
REMARK  169  A    between atoms: _425  and  _427
REMARK  170  A    between atoms: _427  and  _428
REMARK  171  A    between atoms: _427  and  _430
REMARK  172  A    between atoms: _430  and  _431
REMARK  173  A    between atoms: _436  and  _438
REMARK  174  A    between atoms: _438  and  _439
REMARK  175  A    between atoms: _441  and  _443
REMARK  176  A    between atoms: _443  and  _444
REMARK  177  A    between atoms: _443  and  _446
REMARK  178  A    between atoms: _446  and  _447
REMARK  179  A    between atoms: _447  and  _448
REMARK  180  A    between atoms: _448  and  _449
REMARK  181  A    between atoms: _449  and  _450
REMARK  182  A    between atoms: _454  and  _456
REMARK  183  A    between atoms: _456  and  _457
REMARK  184  A    between atoms: _456  and  _459
REMARK  185  A    between atoms: _459  and  _460
REMARK  186  A    between atoms: _460  and  _461
REMARK  187  A    between atoms: _461  and  _462
REMARK  188  A    between atoms: _471  and  _473
REMARK  189  A    between atoms: _473  and  _474
REMARK  190  A    between atoms: _473  and  _476
REMARK  191  A    between atoms: _476  and  _477
REMARK  192  A    between atoms: _482  and  _484
REMARK  193  A    between atoms: _484  and  _485
REMARK  194  A    between atoms: _484  and  _487
REMARK  195  A    between atoms: _487  and  _488
REMARK  196  A    between atoms: _493  and  _494
REMARK  197  A    between atoms: _496  and  _498
REMARK  198  A    between atoms: _498  and  _499
REMARK  199  A    between atoms: _498  and  _501
REMARK  200  A    between atoms: _501  and  _502
REMARK  201  A    between atoms: _502  and  _503
REMARK  202  A    between atoms: _503  and  _504
REMARK  203  A    between atoms: _504  and  _505
REMARK  204  A    between atoms: _509  and  _511
REMARK  205  A    between atoms: _511  and  _512
REMARK  206  A    between atoms: _511  and  _514
REMARK  207  A    between atoms: _514  and  _515
REMARK  208  A    between atoms: _517  and  _519
REMARK  209  A    between atoms: _519  and  _520
REMARK  210  A    between atoms: _519  and  _522
REMARK  211  A    between atoms: _522  and  _523
REMARK  212  A    between atoms: _526  and  _528
REMARK  213  A    between atoms: _528  and  _529
REMARK  214  A    between atoms: _528  and  _531
REMARK  215  A    between atoms: _531  and  _532
REMARK  216  A    between atoms: _532  and  _533
REMARK  217  A    between atoms: _536  and  _538
REMARK  218  A    between atoms: _538  and  _539
REMARK  219  A    between atoms: _542  and  _544
REMARK  220  A    between atoms: _544  and  _545
REMARK  221  A    between atoms: _544  and  _547
REMARK  222  A    between atoms: _547  and  _548
REMARK  223  A    between atoms: _550  and  _552
REMARK  224  A    between atoms: _552  and  _553
REMARK  225  A    between atoms: _555  and  _557
REMARK  226  A    between atoms: _557  and  _558
REMARK  227  A    between atoms: _557  and  _560
REMARK  228  A    between atoms: _560  and  _561
REMARK  229  A    between atoms: _564  and  _566
REMARK  230  A    between atoms: _566  and  _567
REMARK  231  A    between atoms: _569  and  _571
REMARK  232  A    between atoms: _571  and  _572
REMARK  233  A    between atoms: _571  and  _574
REMARK  234  A    between atoms: _574  and  _575
REMARK  235  A    between atoms: _580  and  _582
REMARK  236  A    between atoms: _582  and  _583
REMARK  237  A    between atoms: _582  and  _585
REMARK  238  A    between atoms: _585  and  _586
REMARK  239  A    between atoms: _586  and  _587
REMARK  240  A    between atoms: _594  and  _595
REMARK  241  A    between atoms: _595  and  _611
REMARK  242  A    between atoms: _596  and  _598
REMARK  243  A    between atoms: _598  and  _599
REMARK  244  A    between atoms: _599  and  _600
REMARK  245  A    between atoms: _604  and  _606
REMARK  246  A    between atoms: _606  and  _607
REMARK  247  A    between atoms: _606  and  _614
REMARK  248  A    between atoms: _607  and  _608
REMARK  249  A    between atoms: _608  and  _609
REMARK  250  A    between atoms: _609  and  _610
REMARK  251  A    between atoms: _610  and  _611
REMARK  252  A    between atoms: _616  and  _618
REMARK  253  A    between atoms: _618  and  _619
REMARK  254  A    between atoms: _618  and  _621
REMARK  255  A    between atoms: _621  and  _622
REMARK  256  A    between atoms: _625  and  _627
REMARK  257  A    between atoms: _627  and  _628
REMARK  258  A    between atoms: _630  and  _632
REMARK  259  A    between atoms: _632  and  _633
REMARK  260  A    between atoms: _636  and  _638
REMARK  261  A    between atoms: _638  and  _639
REMARK  262  A    between atoms: _638  and  _641
REMARK  263  A    between atoms: _641  and  _642
REMARK  264  A    between atoms: _647  and  _648
REMARK                            x       y       z     vdW  Elec       q    Type
REMARK                         _______ _______ _______ _____ _____    ______ ____
ROOT
ATOM      1  C   LEU A   5      30.535  19.871  32.334  0.00  0.00    +0.241 C 
ATOM      2  N   GLY A   6      29.918  20.757  33.112  0.00  0.00    -0.295 N 
ATOM      3  H   GLY A   6      29.981  21.767  32.872  0.00  0.00    +0.150 HD
ATOM      4  O   LEU A   5      30.538  18.657  32.559  0.00  0.00    -0.273 OA
ENDROOT
BRANCH   1   5
ATOM      5  CA  LEU A   5      31.268  20.437  31.119  0.00  0.00    +0.149 C 
BRANCH   5   7
ATOM      6  C   GLY A   4      29.321  21.041  29.764  0.00  0.00    +0.243 C 
ATOM      7  N   LEU A   5      30.438  21.405  30.394  0.00  0.00    -0.297 N 
ATOM      8  H   LEU A   5      30.729  22.403  30.371  0.00  0.00    +0.150 HD
ATOM      9  O   GLY A   4      28.901  19.884  29.750  0.00  0.00    -0.273 OA
BRANCH   6  10
ATOM     10  CA  GLY A   4      28.569  22.132  29.027  0.00  0.00    +0.176 C 
BRANCH  10  13
ATOM     11  C   GLY A   3      27.842  23.508  30.934  0.00  0.00    +0.243 C 
ATOM     12  O   GLY A   3      27.525  22.546  31.638  0.00  0.00    -0.273 OA
ATOM     13  N   GLY A   4      28.415  23.403  29.737  0.00  0.00    -0.295 N 
ATOM     14  H   GLY A   4      28.771  24.268  29.283  0.00  0.00    +0.150 HD
BRANCH  11  15
ATOM     15  CA  GLY A   3      27.610  24.917  31.419  0.00  0.00    +0.176 C 
BRANCH  15  18
ATOM     16  C   ASN A   2      28.118  26.295  33.347  0.00  0.00    +0.241 C 
ATOM     17  O   ASN A   2      27.446  27.235  32.922  0.00  0.00    -0.273 OA
ATOM     18  N   GLY A   3      28.222  25.131  32.720  0.00  0.00    -0.295 N 
ATOM     19  H   GLY A   3      28.752  24.356  33.168  0.00  0.00    +0.150 HD
BRANCH  16  20
ATOM     20  CA  ASN A   2      28.905  26.428  34.635  0.00  0.00    +0.158 C 
BRANCH  20  23
ATOM     21  C   GLY A   1      28.050  24.981  36.412  0.00  0.00    +0.240 C 
ATOM     22  O   GLY A   1      27.103  25.732  36.670  0.00  0.00    -0.274 OA
ATOM     23  N   ASN A   2      28.923  25.214  35.438  0.00  0.00    -0.297 N 
ATOM     24  H   ASN A   2      29.651  24.498  35.241  0.00  0.00    +0.150 HD
BRANCH  21  25
ATOM     25  CA  GLY A   1      28.278  23.708  37.205  0.00  0.00    +0.169 C 
BRANCH  25  26
ATOM     26  N   GLY A   1      27.453  23.678  38.410  0.00  0.00    -0.236 NA
ATOM     27  H   GLY A   1      26.614  24.291  38.450  0.00  0.00    +0.142 HD
ENDBRANCH  25  26
ENDBRANCH  21  25
ENDBRANCH  20  23
BRANCH  20  28
ATOM     28  CB  ASN A   2      30.334  26.840  34.299  0.00  0.00    +0.114 C 
BRANCH  28  29
ATOM     29  CG  ASN A   2      30.983  27.608  35.415  0.00  0.00    +0.222 C 
ATOM     30  ND2 ASN A   2      32.027  27.033  36.016  0.00  0.00    -0.329 N 
ATOM     31 HD21 ASN A   2      32.512  27.522  36.795  0.00  0.00    +0.145 HD
ATOM     32 HD22 ASN A   2      32.355  26.096  35.705  0.00  0.00    +0.145 HD
ATOM     33  OD1 ASN A   2      30.552  28.711  35.739  0.00  0.00    -0.275 OA
ENDBRANCH  28  29
ENDBRANCH  20  28
ENDBRANCH  16  20
ENDBRANCH  15  18
ENDBRANCH  11  15
ENDBRANCH  10  13
ENDBRANCH   6  10
ENDBRANCH   5   7
BRANCH   5  34
ATOM     34  CB  LEU A   5      32.604  21.072  31.534  0.00  0.00    +0.029 C 
BRANCH  34  35
ATOM     35  CG  LEU A   5      33.650  20.205  32.249  0.00  0.00    +0.002 C 
ATOM     36  CD2 LEU A   5      33.509  20.308  33.761  0.00  0.00    +0.000 C 
ATOM     37  CD1 LEU A   5      35.057  20.602  31.826  0.00  0.00    +0.000 C 
ENDBRANCH  34  35
ENDBRANCH   5  34
ENDBRANCH   1   5
BRANCH   2  38
ATOM     38  CA  GLY A   6      29.157  20.360  34.289  0.00  0.00    +0.176 C 
BRANCH  38  39
ATOM     39  C   GLY A   6      27.945  19.541  33.892  0.00  0.00    +0.243 C 
ATOM     40  O   GLY A   6      27.615  18.553  34.538  0.00  0.00    -0.273 OA
ATOM     41  N   ARG A   7      27.286  19.956  32.817  0.00  0.00    -0.297 N 
ATOM     42  H   ARG A   7      27.621  20.797  32.305  0.00  0.00    +0.150 HD
BRANCH  41  43
ATOM     43  CA  ARG A   7      26.100  19.253  32.341  0.00  0.00    +0.149 C 
BRANCH  43  44
ATOM     44  C   ARG A   7      26.450  17.892  31.741  0.00  0.00    +0.241 C 
ATOM     45  O   ARG A   7      25.686  16.934  31.895  0.00  0.00    -0.273 OA
ATOM     46  N   LEU A   8      27.601  17.804  31.074  0.00  0.00    -0.297 N 
ATOM     47  H   LEU A   8      28.158  18.666  30.904  0.00  0.00    +0.150 HD
BRANCH  46  48
ATOM     48  CA  LEU A   8      28.098  16.519  30.576  0.00  0.00    +0.149 C 
BRANCH  48  49
ATOM     49  C   LEU A   8      28.265  15.509  31.713  0.00  0.00    +0.241 C 
ATOM     50  N   ALA A   9      28.850  15.951  32.826  0.00  0.00    -0.298 N 
ATOM     51  H   ALA A   9      29.209  16.927  32.856  0.00  0.00    +0.150 HD
ATOM     52  O   LEU A   8      27.876  14.354  31.580  0.00  0.00    -0.273 OA
BRANCH  50  53
ATOM     53  CA  ALA A   9      29.001  15.101  34.005  0.00  0.00    +0.137 C 
ATOM     54  CB  ALA A   9      29.687  15.875  35.135  0.00  0.00    +0.030 C 
BRANCH  53  55
ATOM     55  C   ALA A   9      27.650  14.555  34.474  0.00  0.00    +0.227 C 
ATOM     56  O   ALA A   9      27.530  13.372  34.799  0.00  0.00    -0.286 OA
ENDBRANCH  53  55
ENDBRANCH  50  53
ENDBRANCH  48  49
BRANCH  48  57
ATOM     57  CB  LEU A   8      29.424  16.681  29.826  0.00  0.00    +0.029 C 
BRANCH  57  58
ATOM     58  CG  LEU A   8      29.921  15.445  29.072  0.00  0.00    +0.002 C 
ATOM     59  CD2 LEU A   8      31.418  15.557  28.808  0.00  0.00    +0.000 C 
ATOM     60  CD1 LEU A   8      29.140  15.253  27.776  0.00  0.00    +0.000 C 
ENDBRANCH  57  58
ENDBRANCH  48  57
ENDBRANCH  46  48
ENDBRANCH  43  44
BRANCH  43  61
ATOM     61  CB  ARG A   7      25.297  20.116  31.361  0.00  0.00    +0.033 C 
BRANCH  61  62
ATOM     62  CG  ARG A   7      23.996  19.473  30.879  0.00  0.00    +0.045 C 
BRANCH  62  63
ATOM     63  CD  ARG A   7      23.096  19.068  32.047  0.00  0.00    +0.174 C 
BRANCH  63  64
ATOM     64  NE  ARG A   7      22.675  17.673  31.927  0.00  0.00    -0.265 N 
ATOM     65  CZ  ARG A   7      21.892  17.035  32.794  0.00  0.00    +0.342 C 
ATOM     66  NH2 ARG A   7      21.427  17.661  33.875  0.00  0.00    -0.292 N 
ATOM     67 HH21 ARG A   7      20.816  17.154  34.547  0.00  0.00    +0.255 HD
ATOM     68 HH22 ARG A   7      21.675  18.656  34.047  0.00  0.00    +0.255 HD
ATOM     69  NH1 ARG A   7      21.579  15.761  32.581  0.00  0.00    -0.292 N 
ATOM     70 HH11 ARG A   7      20.968  15.256  33.254  0.00  0.00    +0.255 HD
ATOM     71 HH12 ARG A   7      21.945  15.269  31.741  0.00  0.00    +0.255 HD
ATOM     72  HE  ARG A   7      23.013  17.138  31.101  0.00  0.00    +0.259 HD
ENDBRANCH  63  64
ENDBRANCH  62  63
ENDBRANCH  61  62
ENDBRANCH  43  61
ENDBRANCH  41  43
ENDBRANCH  38  39
ENDBRANCH   2  38
TORSDOF 28
REMARK  Name = ../refined-set-2016/2qrq/2qrq_pocket.pdb
REMARK  264 active torsions:
REMARK  status: ('A' for Active; 'I' for Inactive)
REMARK    1  A    between atoms: _1  and  _3
REMARK    2  A    between atoms: _3  and  _4
REMARK    3  A    between atoms: _3  and  _6
REMARK    4  A    between atoms: _6  and  _7
REMARK    5  A    between atoms: _12  and  _13
REMARK    6  A    between atoms: _15  and  _17
REMARK    7  A    between atoms: _17  and  _18
REMARK    8  A    between atoms: _17  and  _20
REMARK    9  A    between atoms: _20  and  _21
REMARK   10  A    between atoms: _24  and  _26
REMARK   11  A    between atoms: _26  and  _27
REMARK   12  A    between atoms: _26  and  _29
REMARK   13  A    between atoms: _29  and  _30
REMARK   14  A    between atoms: _30  and  _31
REMARK   15  A    between atoms: _34  and  _36
REMARK   16  A    between atoms: _36  and  _37
REMARK   17  A    between atoms: _39  and  _41
REMARK   18  A    between atoms: _41  and  _42
REMARK   19  A    between atoms: _41  and  _44
REMARK   20  A    between atoms: _44  and  _45
REMARK   21  A    between atoms: _50  and  _52
REMARK   22  A    between atoms: _52  and  _53
REMARK   23  A    between atoms: _55  and  _57
REMARK   24  A    between atoms: _57  and  _58
REMARK   25  A    between atoms: _60  and  _62
REMARK   26  A    between atoms: _62  and  _63
REMARK   27  A    between atoms: _62  and  _65
REMARK   28  A    between atoms: _65  and  _66
REMARK   29  A    between atoms: _69  and  _71
REMARK   30  A    between atoms: _71  and  _72
REMARK   31  A    between atoms: _74  and  _76
REMARK   32  A    between atoms: _76  and  _77
REMARK   33  A    between atoms: _76  and  _79
REMARK   34  A    between atoms: _79  and  _80
REMARK   35  A    between atoms: _80  and  _81
REMARK   36  A    between atoms: _81  and  _82
REMARK   37  A    between atoms: _91  and  _93
REMARK   38  A    between atoms: _93  and  _94
REMARK   39  A    between atoms: _93  and  _96
REMARK   40  A    between atoms: _96  and  _97
REMARK   41  A    between atoms: _100  and  _102
REMARK   42  A    between atoms: _102  and  _103
REMARK   43  A    between atoms: _106  and  _108
REMARK   44  A    between atoms: _108  and  _109
REMARK   45  A    between atoms: _108  and  _111
REMARK   46  A    between atoms: _111  and  _112
REMARK   47  A    between atoms: _118  and  _120
REMARK   48  A    between atoms: _120  and  _121
REMARK   49  A    between atoms: _120  and  _123
REMARK   50  A    between atoms: _123  and  _124
REMARK   51  A    between atoms: _127  and  _129
REMARK   52  A    between atoms: _129  and  _130
REMARK   53  A    between atoms: _129  and  _132
REMARK   54  A    between atoms: _132  and  _133
REMARK   55  A    between atoms: _138  and  _139
REMARK   56  A    between atoms: _142  and  _143
REMARK   57  A    between atoms: _148  and  _150
REMARK   58  A    between atoms: _150  and  _151
REMARK   59  A    between atoms: _150  and  _153
REMARK   60  A    between atoms: _153  and  _154
REMARK   61  A    between atoms: _159  and  _161
REMARK   62  A    between atoms: _161  and  _162
REMARK   63  A    between atoms: _161  and  _164
REMARK   64  A    between atoms: _164  and  _165
REMARK   65  A    between atoms: _168  and  _170
REMARK   66  A    between atoms: _170  and  _171
REMARK   67  A    between atoms: _170  and  _173
REMARK   68  A    between atoms: _173  and  _174
REMARK   69  A    between atoms: _179  and  _181
REMARK   70  A    between atoms: _181  and  _182
REMARK   71  A    between atoms: _181  and  _184
REMARK   72  A    between atoms: _184  and  _185
REMARK   73  A    between atoms: _191  and  _193
REMARK   74  A    between atoms: _193  and  _194
REMARK   75  A    between atoms: _193  and  _196
REMARK   76  A    between atoms: _196  and  _197
REMARK   77  A    between atoms: _203  and  _205
REMARK   78  A    between atoms: _205  and  _206
REMARK   79  A    between atoms: _205  and  _208
REMARK   80  A    between atoms: _208  and  _209
REMARK   81  A    between atoms: _209  and  _210
REMARK   82  A    between atoms: _213  and  _215
REMARK   83  A    between atoms: _215  and  _216
REMARK   84  A    between atoms: _215  and  _218
REMARK   85  A    between atoms: _218  and  _219
REMARK   86  A    between atoms: _219  and  _220
REMARK   87  A    between atoms: _220  and  _221
REMARK   88  A    between atoms: _230  and  _232
REMARK   89  A    between atoms: _232  and  _233
REMARK   90  A    between atoms: _232  and  _235
REMARK   91  A    between atoms: _235  and  _236
REMARK   92  A    between atoms: _236  and  _237
REMARK   93  A    between atoms: _240  and  _242
REMARK   94  A    between atoms: _242  and  _243
REMARK   95  A    between atoms: _242  and  _245
REMARK   96  A    between atoms: _245  and  _246
REMARK   97  A    between atoms: _251  and  _253
REMARK   98  A    between atoms: _253  and  _254
REMARK   99  A    between atoms: _253  and  _256
REMARK  100  A    between atoms: _256  and  _257
REMARK  101  A    between atoms: _260  and  _262
REMARK  102  A    between atoms: _262  and  _263
REMARK  103  A    between atoms: _262  and  _265
REMARK  104  A    between atoms: _265  and  _266
REMARK  105  A    between atoms: _269  and  _271
REMARK  106  A    between atoms: _271  and  _272
REMARK  107  A    between atoms: _271  and  _274
REMARK  108  A    between atoms: _274  and  _275
REMARK  109  A    between atoms: _280  and  _282
REMARK  110  A    between atoms: _282  and  _283
REMARK  111  A    between atoms: _282  and  _285
REMARK  112  A    between atoms: _285  and  _286
REMARK  113  A    between atoms: _289  and  _291
REMARK  114  A    between atoms: _291  and  _292
REMARK  115  A    between atoms: _291  and  _294
REMARK  116  A    between atoms: _294  and  _295
REMARK  117  A    between atoms: _300  and  _302
REMARK  118  A    between atoms: _302  and  _303
REMARK  119  A    between atoms: _302  and  _305
REMARK  120  A    between atoms: _305  and  _306
REMARK  121  A    between atoms: _311  and  _313
REMARK  122  A    between atoms: _313  and  _314
REMARK  123  A    between atoms: _313  and  _316
REMARK  124  A    between atoms: _316  and  _317
REMARK  125  A    between atoms: _320  and  _322
REMARK  126  A    between atoms: _322  and  _323
REMARK  127  A    between atoms: _322  and  _325
REMARK  128  A    between atoms: _328  and  _330
REMARK  129  A    between atoms: _330  and  _331
REMARK  130  A    between atoms: _330  and  _333
REMARK  131  A    between atoms: _333  and  _334
REMARK  132  A    between atoms: _337  and  _339
REMARK  133  A    between atoms: _339  and  _340
REMARK  134  A    between atoms: _343  and  _345
REMARK  135  A    between atoms: _345  and  _346
REMARK  136  A    between atoms: _345  and  _348
REMARK  137  A    between atoms: _348  and  _349
REMARK  138  A    between atoms: _352  and  _354
REMARK  139  A    between atoms: _354  and  _355
REMARK  140  A    between atoms: _354  and  _357
REMARK  141  A    between atoms: _357  and  _358
REMARK  142  A    between atoms: _358  and  _359
REMARK  143  A    between atoms: _362  and  _364
REMARK  144  A    between atoms: _364  and  _365
REMARK  145  A    between atoms: _364  and  _367
REMARK  146  A    between atoms: _367  and  _368
REMARK  147  A    between atoms: _373  and  _375
REMARK  148  A    between atoms: _375  and  _376
REMARK  149  A    between atoms: _378  and  _380
REMARK  150  A    between atoms: _380  and  _381
REMARK  151  A    between atoms: _380  and  _383
REMARK  152  A    between atoms: _386  and  _388
REMARK  153  A    between atoms: _388  and  _389
REMARK  154  A    between atoms: _392  and  _394
REMARK  155  A    between atoms: _394  and  _395
REMARK  156  A    between atoms: _394  and  _397
REMARK  157  A    between atoms: _397  and  _398
REMARK  158  A    between atoms: _403  and  _405
REMARK  159  A    between atoms: _405  and  _406
REMARK  160  A    between atoms: _405  and  _408
REMARK  161  A    between atoms: _408  and  _409
REMARK  162  A    between atoms: _409  and  _410
REMARK  163  A    between atoms: _410  and  _411
REMARK  164  A    between atoms: _411  and  _412
REMARK  165  A    between atoms: _416  and  _418
REMARK  166  A    between atoms: _418  and  _419
REMARK  167  A    between atoms: _418  and  _421
REMARK  168  A    between atoms: _421  and  _422
REMARK  169  A    between atoms: _425  and  _427
REMARK  170  A    between atoms: _427  and  _428
REMARK  171  A    between atoms: _427  and  _430
REMARK  172  A    between atoms: _430  and  _431
REMARK  173  A    between atoms: _436  and  _438
REMARK  174  A    between atoms: _438  and  _439
REMARK  175  A    between atoms: _441  and  _443
REMARK  176  A    between atoms: _443  and  _444
REMARK  177  A    between atoms: _443  and  _446
REMARK  178  A    between atoms: _446  and  _447
REMARK  179  A    between atoms: _447  and  _448
REMARK  180  A    between atoms: _448  and  _449
REMARK  181  A    between atoms: _449  and  _450
REMARK  182  A    between atoms: _454  and  _456
REMARK  183  A    between atoms: _456  and  _457
REMARK  184  A    between atoms: _456  and  _459
REMARK  185  A    between atoms: _459  and  _460
REMARK  186  A    between atoms: _460  and  _461
REMARK  187  A    between atoms: _461  and  _462
REMARK  188  A    between atoms: _471  and  _473
REMARK  189  A    between atoms: _473  and  _474
REMARK  190  A    between atoms: _473  and  _476
REMARK  191  A    between atoms: _476  and  _477
REMARK  192  A    between atoms: _482  and  _484
REMARK  193  A    between atoms: _484  and  _485
REMARK  194  A    between atoms: _484  and  _487
REMARK  195  A    between atoms: _487  and  _488
REMARK  196  A    between atoms: _493  and  _494
REMARK  197  A    between atoms: _496  and  _498
REMARK  198  A    between atoms: _498  and  _499
REMARK  199  A    between atoms: _498  and  _501
REMARK  200  A    between atoms: _501  and  _502
REMARK  201  A    between atoms: _502  and  _503
REMARK  202  A    between atoms: _503  and  _504
REMARK  203  A    between atoms: _504  and  _505
REMARK  204  A    between atoms: _509  and  _511
REMARK  205  A    between atoms: _511  and  _512
REMARK  206  A    between atoms: _511  and  _514
REMARK  207  A    between atoms: _514  and  _515
REMARK  208  A    between atoms: _517  and  _519
REMARK  209  A    between atoms: _519  and  _520
REMARK  210  A    between atoms: _519  and  _522
REMARK  211  A    between atoms: _522  and  _523
REMARK  212  A    between atoms: _526  and  _528
REMARK  213  A    between atoms: _528  and  _529
REMARK  214  A    between atoms: _528  and  _531
REMARK  215  A    between atoms: _531  and  _532
REMARK  216  A    between atoms: _532  and  _533
REMARK  217  A    between atoms: _536  and  _538
REMARK  218  A    between atoms: _538  and  _539
REMARK  219  A    between atoms: _542  and  _544
REMARK  220  A    between atoms: _544  and  _545
REMARK  221  A    between atoms: _544  and  _547
REMARK  222  A    between atoms: _547  and  _548
REMARK  223  A    between atoms: _550  and  _552
REMARK  224  A    between atoms: _552  and  _553
REMARK  225  A    between atoms: _555  and  _557
REMARK  226  A    between atoms: _557  and  _558
REMARK  227  A    between atoms: _557  and  _560
REMARK  228  A    between atoms: _560  and  _561
REMARK  229  A    between atoms: _564  and  _566
REMARK  230  A    between atoms: _566  and  _567
REMARK  231  A    between atoms: _569  and  _571
REMARK  232  A    between atoms: _571  and  _572
REMARK  233  A    between atoms: _571  and  _574
REMARK  234  A    between atoms: _574  and  _575
REMARK  235  A    between atoms: _580  and  _582
REMARK  236  A    between atoms: _582  and  _583
REMARK  237  A    between atoms: _582  and  _585
REMARK  238  A    between atoms: _585  and  _586
REMARK  239  A    between atoms: _586  and  _587
REMARK  240  A    between atoms: _594  and  _595
REMARK  241  A    between atoms: _595  and  _611
REMARK  242  A    between atoms: _596  and  _598
REMARK  243  A    between atoms: _598  and  _599
REMARK  244  A    between atoms: _599  and  _600
REMARK  245  A    between atoms: _604  and  _606
REMARK  246  A    between atoms: _606  and  _607
REMARK  247  A    between atoms: _606  and  _614
REMARK  248  A    between atoms: _607  and  _608
REMARK  249  A    between atoms: _608  and  _609
REMARK  250  A    between atoms: _609  and  _610
REMARK  251  A    between atoms: _610  and  _611
REMARK  252  A    between atoms: _616  and  _618
REMARK  253  A    between atoms: _618  and  _619
REMARK  254  A    between atoms: _618  and  _621
REMARK  255  A    between atoms: _621  and  _622
REMARK  256  A    between atoms: _625  and  _627
REMARK  257  A    between atoms: _627  and  _628
REMARK  258  A    between atoms: _630  and  _632
REMARK  259  A    between atoms: _632  and  _633
REMARK  260  A    between atoms: _636  and  _638
REMARK  261  A    between atoms: _638  and  _639
REMARK  262  A    between atoms: _638  and  _641
REMARK  263  A    between atoms: _641  and  _642
REMARK  264  A    between atoms: _647  and  _648
REMARK                            x       y       z     vdW  Elec       q    Type
REMARK                         _______ _______ _______ _____ _____    ______ ____
ROOT
ATOM      1  CB  PHE A   1      28.608  11.221  32.313  0.00  0.00    +0.051 C 
ENDROOT
BRANCH   1   2
ATOM      2  CG  PHE A   1      29.294  11.475  30.988  0.00  0.00    -0.020 A 
ATOM      3  CD2 PHE A   1      30.673  11.655  30.943  0.00  0.00    -0.004 A 
ATOM      4  CE2 PHE A   1      31.327  11.890  29.735  0.00  0.00    -0.000 A 
ATOM      5  CZ  PHE A   1      30.595  11.954  28.552  0.00  0.00    -0.000 A 
ATOM      6  CE1 PHE A   1      29.216  11.778  28.581  0.00  0.00    -0.000 A 
ATOM      7  CD1 PHE A   1      28.572  11.549  29.797  0.00  0.00    -0.004 A 
ENDBRANCH   1   2
BRANCH   1   8
ATOM      8  CA  PHE A   1      27.132  10.829  32.191  0.00  0.00    +0.137 C 
BRANCH   8   9
ATOM      9  N   PHE A   1      26.303  12.021  32.012  0.00  0.00    -0.239 NA
ATOM     10  H   PHE A   1      26.754  12.956  32.076  0.00  0.00    +0.142 HD
ENDBRANCH   8   9
BRANCH   8  11
ATOM     11  C   PHE A   1      26.704   9.996  33.396  0.00  0.00    +0.224 C 
ATOM     12  O   PHE A   1      26.622   8.770  33.307  0.00  0.00    -0.287 OA
ENDBRANCH   8  11
ENDBRANCH   1   8
TORSDOF 4
REMARK  Name = ../refined-set-2016/2qrq/2qrq_pocket.pdb
REMARK  264 active torsions:
REMARK  status: ('A' for Active; 'I' for Inactive)
REMARK    1  A    between atoms: _1  and  _3
REMARK    2  A    between atoms: _3  and  _4
REMARK    3  A    between atoms: _3  and  _6
REMARK    4  A    between atoms: _6  and  _7
REMARK    5  A    between atoms: _12  and  _13
REMARK    6  A    between atoms: _15  and  _17
REMARK    7  A    between atoms: _17  and  _18
REMARK    8  A    between atoms: _17  and  _20
REMARK    9  A    between atoms: _20  and  _21
REMARK   10  A    between atoms: _24  and  _26
REMARK   11  A    between atoms: _26  and  _27
REMARK   12  A    between atoms: _26  and  _29
REMARK   13  A    between atoms: _29  and  _30
REMARK   14  A    between atoms: _30  and  _31
REMARK   15  A    between atoms: _34  and  _36
REMARK   16  A    between atoms: _36  and  _37
REMARK   17  A    between atoms: _39  and  _41
REMARK   18  A    between atoms: _41  and  _42
REMARK   19  A    between atoms: _41  and  _44
REMARK   20  A    between atoms: _44  and  _45
REMARK   21  A    between atoms: _50  and  _52
REMARK   22  A    between atoms: _52  and  _53
REMARK   23  A    between atoms: _55  and  _57
REMARK   24  A    between atoms: _57  and  _58
REMARK   25  A    between atoms: _60  and  _62
REMARK   26  A    between atoms: _62  and  _63
REMARK   27  A    between atoms: _62  and  _65
REMARK   28  A    between atoms: _65  and  _66
REMARK   29  A    between atoms: _69  and  _71
REMARK   30  A    between atoms: _71  and  _72
REMARK   31  A    between atoms: _74  and  _76
REMARK   32  A    between atoms: _76  and  _77
REMARK   33  A    between atoms: _76  and  _79
REMARK   34  A    between atoms: _79  and  _80
REMARK   35  A    between atoms: _80  and  _81
REMARK   36  A    between atoms: _81  and  _82
REMARK   37  A    between atoms: _91  and  _93
REMARK   38  A    between atoms: _93  and  _94
REMARK   39  A    between atoms: _93  and  _96
REMARK   40  A    between atoms: _96  and  _97
REMARK   41  A    between atoms: _100  and  _102
REMARK   42  A    between atoms: _102  and  _103
REMARK   43  A    between atoms: _106  and  _108
REMARK   44  A    between atoms: _108  and  _109
REMARK   45  A    between atoms: _108  and  _111
REMARK   46  A    between atoms: _111  and  _112
REMARK   47  A    between atoms: _118  and  _120
REMARK   48  A    between atoms: _120  and  _121
REMARK   49  A    between atoms: _120  and  _123
REMARK   50  A    between atoms: _123  and  _124
REMARK   51  A    between atoms: _127  and  _129
REMARK   52  A    between atoms: _129  and  _130
REMARK   53  A    between atoms: _129  and  _132
REMARK   54  A    between atoms: _132  and  _133
REMARK   55  A    between atoms: _138  and  _139
REMARK   56  A    between atoms: _142  and  _143
REMARK   57  A    between atoms: _148  and  _150
REMARK   58  A    between atoms: _150  and  _151
REMARK   59  A    between atoms: _150  and  _153
REMARK   60  A    between atoms: _153  and  _154
REMARK   61  A    between atoms: _159  and  _161
REMARK   62  A    between atoms: _161  and  _162
REMARK   63  A    between atoms: _161  and  _164
REMARK   64  A    between atoms: _164  and  _165
REMARK   65  A    between atoms: _168  and  _170
REMARK   66  A    between atoms: _170  and  _171
REMARK   67  A    between atoms: _170  and  _173
REMARK   68  A    between atoms: _173  and  _174
REMARK   69  A    between atoms: _179  and  _181
REMARK   70  A    between atoms: _181  and  _182
REMARK   71  A    between atoms: _181  and  _184
REMARK   72  A    between atoms: _184  and  _185
REMARK   73  A    between atoms: _191  and  _193
REMARK   74  A    between atoms: _193  and  _194
REMARK   75  A    between atoms: _193  and  _196
REMARK   76  A    between atoms: _196  and  _197
REMARK   77  A    between atoms: _203  and  _205
REMARK   78  A    between atoms: _205  and  _206
REMARK   79  A    between atoms: _205  and  _208
REMARK   80  A    between atoms: _208  and  _209
REMARK   81  A    between atoms: _209  and  _210
REMARK   82  A    between atoms: _213  and  _215
REMARK   83  A    between atoms: _215  and  _216
REMARK   84  A    between atoms: _215  and  _218
REMARK   85  A    between atoms: _218  and  _219
REMARK   86  A    between atoms: _219  and  _220
REMARK   87  A    between atoms: _220  and  _221
REMARK   88  A    between atoms: _230  and  _232
REMARK   89  A    between atoms: _232  and  _233
REMARK   90  A    between atoms: _232  and  _235
REMARK   91  A    between atoms: _235  and  _236
REMARK   92  A    between atoms: _236  and  _237
REMARK   93  A    between atoms: _240  and  _242
REMARK   94  A    between atoms: _242  and  _243
REMARK   95  A    between atoms: _242  and  _245
REMARK   96  A    between atoms: _245  and  _246
REMARK   97  A    between atoms: _251  and  _253
REMARK   98  A    between atoms: _253  and  _254
REMARK   99  A    between atoms: _253  and  _256
REMARK  100  A    between atoms: _256  and  _257
REMARK  101  A    between atoms: _260  and  _262
REMARK  102  A    between atoms: _262  and  _263
REMARK  103  A    between atoms: _262  and  _265
REMARK  104  A    between atoms: _265  and  _266
REMARK  105  A    between atoms: _269  and  _271
REMARK  106  A    between atoms: _271  and  _272
REMARK  107  A    between atoms: _271  and  _274
REMARK  108  A    between atoms: _274  and  _275
REMARK  109  A    between atoms: _280  and  _282
REMARK  110  A    between atoms: _282  and  _283
REMARK  111  A    between atoms: _282  and  _285
REMARK  112  A    between atoms: _285  and  _286
REMARK  113  A    between atoms: _289  and  _291
REMARK  114  A    between atoms: _291  and  _292
REMARK  115  A    between atoms: _291  and  _294
REMARK  116  A    between atoms: _294  and  _295
REMARK  117  A    between atoms: _300  and  _302
REMARK  118  A    between atoms: _302  and  _303
REMARK  119  A    between atoms: _302  and  _305
REMARK  120  A    between atoms: _305  and  _306
REMARK  121  A    between atoms: _311  and  _313
REMARK  122  A    between atoms: _313  and  _314
REMARK  123  A    between atoms: _313  and  _316
REMARK  124  A    between atoms: _316  and  _317
REMARK  125  A    between atoms: _320  and  _322
REMARK  126  A    between atoms: _322  and  _323
REMARK  127  A    between atoms: _322  and  _325
REMARK  128  A    between atoms: _328  and  _330
REMARK  129  A    between atoms: _330  and  _331
REMARK  130  A    between atoms: _330  and  _333
REMARK  131  A    between atoms: _333  and  _334
REMARK  132  A    between atoms: _337  and  _339
REMARK  133  A    between atoms: _339  and  _340
REMARK  134  A    between atoms: _343  and  _345
REMARK  135  A    between atoms: _345  and  _346
REMARK  136  A    between atoms: _345  and  _348
REMARK  137  A    between atoms: _348  and  _349
REMARK  138  A    between atoms: _352  and  _354
REMARK  139  A    between atoms: _354  and  _355
REMARK  140  A    between atoms: _354  and  _357
REMARK  141  A    between atoms: _357  and  _358
REMARK  142  A    between atoms: _358  and  _359
REMARK  143  A    between atoms: _362  and  _364
REMARK  144  A    between atoms: _364  and  _365
REMARK  145  A    between atoms: _364  and  _367
REMARK  146  A    between atoms: _367  and  _368
REMARK  147  A    between atoms: _373  and  _375
REMARK  148  A    between atoms: _375  and  _376
REMARK  149  A    between atoms: _378  and  _380
REMARK  150  A    between atoms: _380  and  _381
REMARK  151  A    between atoms: _380  and  _383
REMARK  152  A    between atoms: _386  and  _388
REMARK  153  A    between atoms: _388  and  _389
REMARK  154  A    between atoms: _392  and  _394
REMARK  155  A    between atoms: _394  and  _395
REMARK  156  A    between atoms: _394  and  _397
REMARK  157  A    between atoms: _397  and  _398
REMARK  158  A    between atoms: _403  and  _405
REMARK  159  A    between atoms: _405  and  _406
REMARK  160  A    between atoms: _405  and  _408
REMARK  161  A    between atoms: _408  and  _409
REMARK  162  A    between atoms: _409  and  _410
REMARK  163  A    between atoms: _410  and  _411
REMARK  164  A    between atoms: _411  and  _412
REMARK  165  A    between atoms: _416  and  _418
REMARK  166  A    between atoms: _418  and  _419
REMARK  167  A    between atoms: _418  and  _421
REMARK  168  A    between atoms: _421  and  _422
REMARK  169  A    between atoms: _425  and  _427
REMARK  170  A    between atoms: _427  and  _428
REMARK  171  A    between atoms: _427  and  _430
REMARK  172  A    between atoms: _430  and  _431
REMARK  173  A    between atoms: _436  and  _438
REMARK  174  A    between atoms: _438  and  _439
REMARK  175  A    between atoms: _441  and  _443
REMARK  176  A    between atoms: _443  and  _444
REMARK  177  A    between atoms: _443  and  _446
REMARK  178  A    between atoms: _446  and  _447
REMARK  179  A    between atoms: _447  and  _448
REMARK  180  A    between atoms: _448  and  _449
REMARK  181  A    between atoms: _449  and  _450
REMARK  182  A    between atoms: _454  and  _456
REMARK  183  A    between atoms: _456  and  _457
REMARK  184  A    between atoms: _456  and  _459
REMARK  185  A    between atoms: _459  and  _460
REMARK  186  A    between atoms: _460  and  _461
REMARK  187  A    between atoms: _461  and  _462
REMARK  188  A    between atoms: _471  and  _473
REMARK  189  A    between atoms: _473  and  _474
REMARK  190  A    between atoms: _473  and  _476
REMARK  191  A    between atoms: _476  and  _477
REMARK  192  A    between atoms: _482  and  _484
REMARK  193  A    between atoms: _484  and  _485
REMARK  194  A    between atoms: _484  and  _487
REMARK  195  A    between atoms: _487  and  _488
REMARK  196  A    between atoms: _493  and  _494
REMARK  197  A    between atoms: _496  and  _498
REMARK  198  A    between atoms: _498  and  _499
REMARK  199  A    between atoms: _498  and  _501
REMARK  200  A    between atoms: _501  and  _502
REMARK  201  A    between atoms: _502  and  _503
REMARK  202  A    between atoms: _503  and  _504
REMARK  203  A    between atoms: _504  and  _505
REMARK  204  A    between atoms: _509  and  _511
REMARK  205  A    between atoms: _511  and  _512
REMARK  206  A    between atoms: _511  and  _514
REMARK  207  A    between atoms: _514  and  _515
REMARK  208  A    between atoms: _517  and  _519
REMARK  209  A    between atoms: _519  and  _520
REMARK  210  A    between atoms: _519  and  _522
REMARK  211  A    between atoms: _522  and  _523
REMARK  212  A    between atoms: _526  and  _528
REMARK  213  A    between atoms: _528  and  _529
REMARK  214  A    between atoms: _528  and  _531
REMARK  215  A    between atoms: _531  and  _532
REMARK  216  A    between atoms: _532  and  _533
REMARK  217  A    between atoms: _536  and  _538
REMARK  218  A    between atoms: _538  and  _539
REMARK  219  A    between atoms: _542  and  _544
REMARK  220  A    between atoms: _544  and  _545
REMARK  221  A    between atoms: _544  and  _547
REMARK  222  A    between atoms: _547  and  _548
REMARK  223  A    between atoms: _550  and  _552
REMARK  224  A    between atoms: _552  and  _553
REMARK  225  A    between atoms: _555  and  _557
REMARK  226  A    between atoms: _557  and  _558
REMARK  227  A    between atoms: _557  and  _560
REMARK  228  A    between atoms: _560  and  _561
REMARK  229  A    between atoms: _564  and  _566
REMARK  230  A    between atoms: _566  and  _567
REMARK  231  A    between atoms: _569  and  _571
REMARK  232  A    between atoms: _571  and  _572
REMARK  233  A    between atoms: _571  and  _574
REMARK  234  A    between atoms: _574  and  _575
REMARK  235  A    between atoms: _580  and  _582
REMARK  236  A    between atoms: _582  and  _583
REMARK  237  A    between atoms: _582  and  _585
REMARK  238  A    between atoms: _585  and  _586
REMARK  239  A    between atoms: _586  and  _587
REMARK  240  A    between atoms: _594  and  _595
REMARK  241  A    between atoms: _595  and  _611
REMARK  242  A    between atoms: _596  and  _598
REMARK  243  A    between atoms: _598  and  _599
REMARK  244  A    between atoms: _599  and  _600
REMARK  245  A    between atoms: _604  and  _606
REMARK  246  A    between atoms: _606  and  _607
REMARK  247  A    between atoms: _606  and  _614
REMARK  248  A    between atoms: _607  and  _608
REMARK  249  A    between atoms: _608  and  _609
REMARK  250  A    between atoms: _609  and  _610
REMARK  251  A    between atoms: _610  and  _611
REMARK  252  A    between atoms: _616  and  _618
REMARK  253  A    between atoms: _618  and  _619
REMARK  254  A    between atoms: _618  and  _621
REMARK  255  A    between atoms: _621  and  _622
REMARK  256  A    between atoms: _625  and  _627
REMARK  257  A    between atoms: _627  and  _628
REMARK  258  A    between atoms: _630  and  _632
REMARK  259  A    between atoms: _632  and  _633
REMARK  260  A    between atoms: _636  and  _638
REMARK  261  A    between atoms: _638  and  _639
REMARK  262  A    between atoms: _638  and  _641
REMARK  263  A    between atoms: _641  and  _642
REMARK  264  A    between atoms: _647  and  _648
REMARK                            x       y       z     vdW  Elec       q    Type
REMARK                         _______ _______ _______ _____ _____    ______ ____
ROOT
ATOM      1  CA  ASP A   5      34.632  28.820  32.408  0.00  0.00    +0.160 C 
ENDROOT
BRANCH   1   4
ATOM      2  C   ASN A   4      35.136  30.282  34.303  0.00  0.00    +0.241 C 
ATOM      3  O   ASN A   4      36.011  29.531  34.738  0.00  0.00    -0.273 OA
ATOM      4  N   ASP A   5      34.446  30.040  33.190  0.00  0.00    -0.297 N 
ATOM      5  H   ASP A   5      33.751  30.743  32.867  0.00  0.00    +0.150 HD
BRANCH   2   6
ATOM      6  CA  ASN A   4      34.783  31.576  35.028  0.00  0.00    +0.158 C 
BRANCH   6   8
ATOM      7  C   PRO A   3      32.720  31.213  36.210  0.00  0.00    +0.241 C 
ATOM      8  N   ASN A   4      34.043  31.333  36.262  0.00  0.00    -0.297 N 
ATOM      9  H   ASN A   4      34.544  31.255  37.170  0.00  0.00    +0.150 HD
ATOM     10  O   PRO A   3      32.095  31.304  35.152  0.00  0.00    -0.273 OA
BRANCH   7  16
ATOM     11  C   TYR A   2      33.356  29.625  39.037  0.00  0.00    +0.244 C 
ATOM     12  N   PRO A   3      32.804  30.810  38.714  0.00  0.00    -0.272 N 
ATOM     13  CD  PRO A   3      32.920  32.071  39.471  0.00  0.00    +0.094 C 
ATOM     14  CG  PRO A   3      31.976  33.004  38.754  0.00  0.00    +0.024 C 
ATOM     15  CB  PRO A   3      31.097  32.175  37.878  0.00  0.00    +0.031 C 
ATOM     16  CA  PRO A   3      31.964  30.966  37.524  0.00  0.00    +0.152 C 
ATOM     17  O   TYR A   2      33.294  28.637  38.304  0.00  0.00    -0.273 OA
BRANCH  11  18
ATOM     18  CA  TYR A   2      34.062  29.531  40.391  0.00  0.00    +0.153 C 
BRANCH  18  21
ATOM     19  C   LEU A   1      32.172  28.690  41.676  0.00  0.00    +0.238 C 
ATOM     20  O   LEU A   1      31.570  29.764  41.594  0.00  0.00    -0.274 OA
ATOM     21  N   TYR A   2      33.409  28.515  41.217  0.00  0.00    -0.297 N 
ATOM     22  H   TYR A   2      33.921  27.640  41.450  0.00  0.00    +0.150 HD
BRANCH  19  23
ATOM     23  CA  LEU A   1      31.509  27.485  42.343  0.00  0.00    +0.145 C 
BRANCH  23  24
ATOM     24  N   LEU A   1      30.970  27.861  43.643  0.00  0.00    -0.238 NA
ATOM     25  H   LEU A   1      29.939  27.847  43.778  0.00  0.00    +0.142 HD
ENDBRANCH  23  24
BRANCH  23  26
ATOM     26  CB  LEU A   1      30.387  26.947  41.443  0.00  0.00    +0.026 C 
BRANCH  26  27
ATOM     27  CG  LEU A   1      30.691  26.772  39.947  0.00  0.00    +0.002 C 
ATOM     28  CD2 LEU A   1      31.600  25.575  39.691  0.00  0.00    +0.000 C 
ATOM     29  CD1 LEU A   1      29.402  26.652  39.151  0.00  0.00    +0.000 C 
ENDBRANCH  26  27
ENDBRANCH  23  26
ENDBRANCH  19  23
ENDBRANCH  18  21
BRANCH  18  30
ATOM     30  CB  TYR A   2      35.557  29.235  40.215  0.00  0.00    +0.055 C 
BRANCH  30  31
ATOM     31  CG  TYR A   2      36.417  29.809  41.323  0.00  0.00    -0.020 A 
ATOM     32  CD2 TYR A   2      36.797  29.029  42.417  0.00  0.00    -0.001 A 
ATOM     33  CE2 TYR A   2      37.588  29.560  43.437  0.00  0.00    +0.036 A 
ATOM     34  CZ  TYR A   2      37.991  30.885  43.372  0.00  0.00    +0.134 A 
ATOM     35  CE1 TYR A   2      37.625  31.680  42.300  0.00  0.00    +0.036 A 
ATOM     36  CD1 TYR A   2      36.840  31.141  41.282  0.00  0.00    -0.001 A 
BRANCH  34  37
ATOM     37  OH  TYR A   2      38.765  31.413  44.377  0.00  0.00    -0.506 OA
ATOM     38  HH  TYR A   2      38.290  32.176  44.792  0.00  0.00    +0.292 HD
ENDBRANCH  34  37
ENDBRANCH  30  31
ENDBRANCH  18  30
ENDBRANCH  11  18
ENDBRANCH   7  16
ENDBRANCH   6   8
BRANCH   6  39
ATOM     39  CB  ASN A   4      36.021  32.448  35.255  0.00  0.00    +0.114 C 
BRANCH  39  40
ATOM     40  CG  ASN A   4      36.540  33.060  33.961  0.00  0.00    +0.222 C 
ATOM     41  ND2 ASN A   4      36.898  34.336  34.009  0.00  0.00    -0.329 N 
ATOM     42 HD21 ASN A   4      36.825  34.863  34.903  0.00  0.00    +0.145 HD
ATOM     43 HD22 ASN A   4      37.251  34.809  33.153  0.00  0.00    +0.145 HD
ATOM     44  OD1 ASN A   4      36.607  32.391  32.927  0.00  0.00    -0.275 OA
ENDBRANCH  39  40
ENDBRANCH   6  39
ENDBRANCH   2   6
ENDBRANCH   1   4
BRANCH   1  45
ATOM     45  C   ASP A   5      35.399  29.037  31.093  0.00  0.00    +0.241 C 
ATOM     46  N   ASN A   6      36.124  30.150  30.993  0.00  0.00    -0.297 N 
ATOM     47  H   ASN A   6      36.149  30.817  31.790  0.00  0.00    +0.150 HD
ATOM     48  O   ASP A   5      35.340  28.196  30.191  0.00  0.00    -0.273 OA
BRANCH  46  49
ATOM     49  CA  ASN A   6      36.889  30.451  29.776  0.00  0.00    +0.158 C 
BRANCH  49  50
ATOM     50  C   ASN A   6      38.293  31.004  29.980  0.00  0.00    +0.241 C 
ATOM     51  N   PHE A   7      38.628  31.328  31.225  0.00  0.00    -0.297 N 
ATOM     52  H   PHE A   7      37.968  31.111  31.999  0.00  0.00    +0.150 HD
ATOM     53  O   ASN A   6      39.053  31.139  29.021  0.00  0.00    -0.273 OA
BRANCH  51  54
ATOM     54  CA  PHE A   7      39.894  31.978  31.535  0.00  0.00    +0.153 C 
BRANCH  54  55
ATOM     55  C   PHE A   7      40.459  31.397  32.823  0.00  0.00    +0.241 C 
ATOM     56  O   PHE A   7      39.799  31.429  33.867  0.00  0.00    -0.273 OA
ATOM     57  N   PHE A   8      41.672  30.854  32.743  0.00  0.00    -0.297 N 
ATOM     58  H   PHE A   8      42.164  30.832  31.827  0.00  0.00    +0.150 HD
BRANCH  57  59
ATOM     59  CA  PHE A   8      42.320  30.290  33.920  0.00  0.00    +0.153 C 
BRANCH  59  60
ATOM     60  C   PHE A   8      42.717  31.379  34.899  0.00  0.00    +0.241 C 
ATOM     61  N   GLU A   9      42.113  31.290  36.076  0.00  0.00    -0.298 N 
ATOM     62  H   GLU A   9      41.416  30.529  36.206  0.00  0.00    +0.150 HD
ATOM     63  O   PHE A   8      43.518  32.270  34.589  0.00  0.00    -0.273 OA
BRANCH  61  64
ATOM     64  CA  GLU A   9      42.355  32.175  37.188  0.00  0.00    +0.137 C 
BRANCH  64  65
ATOM     65  C   GLU A   9      43.078  31.301  38.207  0.00  0.00    +0.227 C 
ATOM     66  O   GLU A   9      42.468  30.418  38.827  0.00  0.00    -0.286 OA
ENDBRANCH  64  65
BRANCH  64  67
ATOM     67  CB  GLU A   9      41.006  32.634  37.743  0.00  0.00    +0.039 C 
BRANCH  67  68
ATOM     68  CG  GLU A   9      40.963  34.032  38.318  0.00  0.00    +0.116 C 
BRANCH  68  69
ATOM     69  CD  GLU A   9      39.548  34.444  38.711  0.00  0.00    +0.365 C 
ATOM     70  OE2 GLU A   9      39.395  35.137  39.740  0.00  0.00    -0.246 OA
ATOM     71  OE1 GLU A   9      38.588  34.075  37.992  0.00  0.00    -0.246 OA
ENDBRANCH  68  69
ENDBRANCH  67  68
ENDBRANCH  64  67
ENDBRANCH  61  64
ENDBRANCH  59  60
BRANCH  59  72
ATOM     72  CB  PHE A   8      43.525  29.412  33.566  0.00  0.00    +0.055 C 
BRANCH  72  73
ATOM     73  CG  PHE A   8      44.292  28.922  34.772  0.00  0.00    -0.020 A 
ATOM     74  CD2 PHE A   8      43.682  28.092  35.716  0.00  0.00    -0.004 A 
ATOM     75  CE2 PHE A   8      44.383  27.642  36.834  0.00  0.00    -0.000 A 
ATOM     76  CZ  PHE A   8      45.709  28.027  37.021  0.00  0.00    -0.000 A 
ATOM     77  CE1 PHE A   8      46.326  28.860  36.088  0.00  0.00    -0.000 A 
ATOM     78  CD1 PHE A   8      45.616  29.304  34.973  0.00  0.00    -0.004 A 
ENDBRANCH  72  73
ENDBRANCH  59  72
ENDBRANCH  57  59
ENDBRANCH  54  55
BRANCH  54  79
ATOM     79  CB  PHE A   7      39.679  33.494  31.652  0.00  0.00    +0.055 C 
BRANCH  79  80
ATOM     80  CG  PHE A   7      40.919  34.267  31.987  0.00  0.00    -0.020 A 
ATOM     81  CD2 PHE A   7      41.145  34.708  33.288  0.00  0.00    -0.004 A 
ATOM     82  CE2 PHE A   7      42.295  35.431  33.607  0.00  0.00    -0.000 A 
ATOM     83  CZ  PHE A   7      43.227  35.729  32.615  0.00  0.00    -0.000 A 
ATOM     84  CE1 PHE A   7      43.008  35.302  31.310  0.00  0.00    -0.000 A 
ATOM     85  CD1 PHE A   7      41.854  34.576  31.001  0.00  0.00    -0.004 A 
ENDBRANCH  79  80
ENDBRANCH  54  79
ENDBRANCH  51  54
ENDBRANCH  49  50
BRANCH  49  86
ATOM     86  CB  ASN A   6      36.103  31.389  28.860  0.00  0.00    +0.114 C 
BRANCH  86  87
ATOM     87  CG  ASN A   6      35.625  32.658  29.563  0.00  0.00    +0.222 C 
ATOM     88  OD1 ASN A   6      36.294  33.195  30.451  0.00  0.00    -0.275 OA
ATOM     89  ND2 ASN A   6      34.457  33.145  29.150  0.00  0.00    -0.329 N 
ATOM     90 HD21 ASN A   6      34.074  34.012  29.579  0.00  0.00    +0.145 HD
ATOM     91 HD22 ASN A   6      33.927  32.659  28.398  0.00  0.00    +0.145 HD
ENDBRANCH  86  87
ENDBRANCH  49  86
ENDBRANCH  46  49
ENDBRANCH   1  45
BRANCH   1  92
ATOM     92  CB  ASP A   5      33.275  28.152  32.140  0.00  0.00    +0.143 C 
BRANCH  92  93
ATOM     93  CG  ASP A   5      32.370  28.981  31.247  0.00  0.00    +0.367 C 
ATOM     94  OD2 ASP A   5      32.440  30.229  31.291  0.00  0.00    -0.246 OA
ATOM     95  OD1 ASP A   5      31.569  28.375  30.507  0.00  0.00    -0.246 OA
ENDBRANCH  92  93
ENDBRANCH   1  92
TORSDOF 35
REMARK  Name = ../refined-set-2016/2qrq/2qrq_pocket.pdb
REMARK  264 active torsions:
REMARK  status: ('A' for Active; 'I' for Inactive)
REMARK    1  A    between atoms: _1  and  _3
REMARK    2  A    between atoms: _3  and  _4
REMARK    3  A    between atoms: _3  and  _6
REMARK    4  A    between atoms: _6  and  _7
REMARK    5  A    between atoms: _12  and  _13
REMARK    6  A    between atoms: _15  and  _17
REMARK    7  A    between atoms: _17  and  _18
REMARK    8  A    between atoms: _17  and  _20
REMARK    9  A    between atoms: _20  and  _21
REMARK   10  A    between atoms: _24  and  _26
REMARK   11  A    between atoms: _26  and  _27
REMARK   12  A    between atoms: _26  and  _29
REMARK   13  A    between atoms: _29  and  _30
REMARK   14  A    between atoms: _30  and  _31
REMARK   15  A    between atoms: _34  and  _36
REMARK   16  A    between atoms: _36  and  _37
REMARK   17  A    between atoms: _39  and  _41
REMARK   18  A    between atoms: _41  and  _42
REMARK   19  A    between atoms: _41  and  _44
REMARK   20  A    between atoms: _44  and  _45
REMARK   21  A    between atoms: _50  and  _52
REMARK   22  A    between atoms: _52  and  _53
REMARK   23  A    between atoms: _55  and  _57
REMARK   24  A    between atoms: _57  and  _58
REMARK   25  A    between atoms: _60  and  _62
REMARK   26  A    between atoms: _62  and  _63
REMARK   27  A    between atoms: _62  and  _65
REMARK   28  A    between atoms: _65  and  _66
REMARK   29  A    between atoms: _69  and  _71
REMARK   30  A    between atoms: _71  and  _72
REMARK   31  A    between atoms: _74  and  _76
REMARK   32  A    between atoms: _76  and  _77
REMARK   33  A    between atoms: _76  and  _79
REMARK   34  A    between atoms: _79  and  _80
REMARK   35  A    between atoms: _80  and  _81
REMARK   36  A    between atoms: _81  and  _82
REMARK   37  A    between atoms: _91  and  _93
REMARK   38  A    between atoms: _93  and  _94
REMARK   39  A    between atoms: _93  and  _96
REMARK   40  A    between atoms: _96  and  _97
REMARK   41  A    between atoms: _100  and  _102
REMARK   42  A    between atoms: _102  and  _103
REMARK   43  A    between atoms: _106  and  _108
REMARK   44  A    between atoms: _108  and  _109
REMARK   45  A    between atoms: _108  and  _111
REMARK   46  A    between atoms: _111  and  _112
REMARK   47  A    between atoms: _118  and  _120
REMARK   48  A    between atoms: _120  and  _121
REMARK   49  A    between atoms: _120  and  _123
REMARK   50  A    between atoms: _123  and  _124
REMARK   51  A    between atoms: _127  and  _129
REMARK   52  A    between atoms: _129  and  _130
REMARK   53  A    between atoms: _129  and  _132
REMARK   54  A    between atoms: _132  and  _133
REMARK   55  A    between atoms: _138  and  _139
REMARK   56  A    between atoms: _142  and  _143
REMARK   57  A    between atoms: _148  and  _150
REMARK   58  A    between atoms: _150  and  _151
REMARK   59  A    between atoms: _150  and  _153
REMARK   60  A    between atoms: _153  and  _154
REMARK   61  A    between atoms: _159  and  _161
REMARK   62  A    between atoms: _161  and  _162
REMARK   63  A    between atoms: _161  and  _164
REMARK   64  A    between atoms: _164  and  _165
REMARK   65  A    between atoms: _168  and  _170
REMARK   66  A    between atoms: _170  and  _171
REMARK   67  A    between atoms: _170  and  _173
REMARK   68  A    between atoms: _173  and  _174
REMARK   69  A    between atoms: _179  and  _181
REMARK   70  A    between atoms: _181  and  _182
REMARK   71  A    between atoms: _181  and  _184
REMARK   72  A    between atoms: _184  and  _185
REMARK   73  A    between atoms: _191  and  _193
REMARK   74  A    between atoms: _193  and  _194
REMARK   75  A    between atoms: _193  and  _196
REMARK   76  A    between atoms: _196  and  _197
REMARK   77  A    between atoms: _203  and  _205
REMARK   78  A    between atoms: _205  and  _206
REMARK   79  A    between atoms: _205  and  _208
REMARK   80  A    between atoms: _208  and  _209
REMARK   81  A    between atoms: _209  and  _210
REMARK   82  A    between atoms: _213  and  _215
REMARK   83  A    between atoms: _215  and  _216
REMARK   84  A    between atoms: _215  and  _218
REMARK   85  A    between atoms: _218  and  _219
REMARK   86  A    between atoms: _219  and  _220
REMARK   87  A    between atoms: _220  and  _221
REMARK   88  A    between atoms: _230  and  _232
REMARK   89  A    between atoms: _232  and  _233
REMARK   90  A    between atoms: _232  and  _235
REMARK   91  A    between atoms: _235  and  _236
REMARK   92  A    between atoms: _236  and  _237
REMARK   93  A    between atoms: _240  and  _242
REMARK   94  A    between atoms: _242  and  _243
REMARK   95  A    between atoms: _242  and  _245
REMARK   96  A    between atoms: _245  and  _246
REMARK   97  A    between atoms: _251  and  _253
REMARK   98  A    between atoms: _253  and  _254
REMARK   99  A    between atoms: _253  and  _256
REMARK  100  A    between atoms: _256  and  _257
REMARK  101  A    between atoms: _260  and  _262
REMARK  102  A    between atoms: _262  and  _263
REMARK  103  A    between atoms: _262  and  _265
REMARK  104  A    between atoms: _265  and  _266
REMARK  105  A    between atoms: _269  and  _271
REMARK  106  A    between atoms: _271  and  _272
REMARK  107  A    between atoms: _271  and  _274
REMARK  108  A    between atoms: _274  and  _275
REMARK  109  A    between atoms: _280  and  _282
REMARK  110  A    between atoms: _282  and  _283
REMARK  111  A    between atoms: _282  and  _285
REMARK  112  A    between atoms: _285  and  _286
REMARK  113  A    between atoms: _289  and  _291
REMARK  114  A    between atoms: _291  and  _292
REMARK  115  A    between atoms: _291  and  _294
REMARK  116  A    between atoms: _294  and  _295
REMARK  117  A    between atoms: _300  and  _302
REMARK  118  A    between atoms: _302  and  _303
REMARK  119  A    between atoms: _302  and  _305
REMARK  120  A    between atoms: _305  and  _306
REMARK  121  A    between atoms: _311  and  _313
REMARK  122  A    between atoms: _313  and  _314
REMARK  123  A    between atoms: _313  and  _316
REMARK  124  A    between atoms: _316  and  _317
REMARK  125  A    between atoms: _320  and  _322
REMARK  126  A    between atoms: _322  and  _323
REMARK  127  A    between atoms: _322  and  _325
REMARK  128  A    between atoms: _328  and  _330
REMARK  129  A    between atoms: _330  and  _331
REMARK  130  A    between atoms: _330  and  _333
REMARK  131  A    between atoms: _333  and  _334
REMARK  132  A    between atoms: _337  and  _339
REMARK  133  A    between atoms: _339  and  _340
REMARK  134  A    between atoms: _343  and  _345
REMARK  135  A    between atoms: _345  and  _346
REMARK  136  A    between atoms: _345  and  _348
REMARK  137  A    between atoms: _348  and  _349
REMARK  138  A    between atoms: _352  and  _354
REMARK  139  A    between atoms: _354  and  _355
REMARK  140  A    between atoms: _354  and  _357
REMARK  141  A    between atoms: _357  and  _358
REMARK  142  A    between atoms: _358  and  _359
REMARK  143  A    between atoms: _362  and  _364
REMARK  144  A    between atoms: _364  and  _365
REMARK  145  A    between atoms: _364  and  _367
REMARK  146  A    between atoms: _367  and  _368
REMARK  147  A    between atoms: _373  and  _375
REMARK  148  A    between atoms: _375  and  _376
REMARK  149  A    between atoms: _378  and  _380
REMARK  150  A    between atoms: _380  and  _381
REMARK  151  A    between atoms: _380  and  _383
REMARK  152  A    between atoms: _386  and  _388
REMARK  153  A    between atoms: _388  and  _389
REMARK  154  A    between atoms: _392  and  _394
REMARK  155  A    between atoms: _394  and  _395
REMARK  156  A    between atoms: _394  and  _397
REMARK  157  A    between atoms: _397  and  _398
REMARK  158  A    between atoms: _403  and  _405
REMARK  159  A    between atoms: _405  and  _406
REMARK  160  A    between atoms: _405  and  _408
REMARK  161  A    between atoms: _408  and  _409
REMARK  162  A    between atoms: _409  and  _410
REMARK  163  A    between atoms: _410  and  _411
REMARK  164  A    between atoms: _411  and  _412
REMARK  165  A    between atoms: _416  and  _418
REMARK  166  A    between atoms: _418  and  _419
REMARK  167  A    between atoms: _418  and  _421
REMARK  168  A    between atoms: _421  and  _422
REMARK  169  A    between atoms: _425  and  _427
REMARK  170  A    between atoms: _427  and  _428
REMARK  171  A    between atoms: _427  and  _430
REMARK  172  A    between atoms: _430  and  _431
REMARK  173  A    between atoms: _436  and  _438
REMARK  174  A    between atoms: _438  and  _439
REMARK  175  A    between atoms: _441  and  _443
REMARK  176  A    between atoms: _443  and  _444
REMARK  177  A    between atoms: _443  and  _446
REMARK  178  A    between atoms: _446  and  _447
REMARK  179  A    between atoms: _447  and  _448
REMARK  180  A    between atoms: _448  and  _449
REMARK  181  A    between atoms: _449  and  _450
REMARK  182  A    between atoms: _454  and  _456
REMARK  183  A    between atoms: _456  and  _457
REMARK  184  A    between atoms: _456  and  _459
REMARK  185  A    between atoms: _459  and  _460
REMARK  186  A    between atoms: _460  and  _461
REMARK  187  A    between atoms: _461  and  _462
REMARK  188  A    between atoms: _471  and  _473
REMARK  189  A    between atoms: _473  and  _474
REMARK  190  A    between atoms: _473  and  _476
REMARK  191  A    between atoms: _476  and  _477
REMARK  192  A    between atoms: _482  and  _484
REMARK  193  A    between atoms: _484  and  _485
REMARK  194  A    between atoms: _484  and  _487
REMARK  195  A    between atoms: _487  and  _488
REMARK  196  A    between atoms: _493  and  _494
REMARK  197  A    between atoms: _496  and  _498
REMARK  198  A    between atoms: _498  and  _499
REMARK  199  A    between atoms: _498  and  _501
REMARK  200  A    between atoms: _501  and  _502
REMARK  201  A    between atoms: _502  and  _503
REMARK  202  A    between atoms: _503  and  _504
REMARK  203  A    between atoms: _504  and  _505
REMARK  204  A    between atoms: _509  and  _511
REMARK  205  A    between atoms: _511  and  _512
REMARK  206  A    between atoms: _511  and  _514
REMARK  207  A    between atoms: _514  and  _515
REMARK  208  A    between atoms: _517  and  _519
REMARK  209  A    between atoms: _519  and  _520
REMARK  210  A    between atoms: _519  and  _522
REMARK  211  A    between atoms: _522  and  _523
REMARK  212  A    between atoms: _526  and  _528
REMARK  213  A    between atoms: _528  and  _529
REMARK  214  A    between atoms: _528  and  _531
REMARK  215  A    between atoms: _531  and  _532
REMARK  216  A    between atoms: _532  and  _533
REMARK  217  A    between atoms: _536  and  _538
REMARK  218  A    between atoms: _538  and  _539
REMARK  219  A    between atoms: _542  and  _544
REMARK  220  A    between atoms: _544  and  _545
REMARK  221  A    between atoms: _544  and  _547
REMARK  222  A    between atoms: _547  and  _548
REMARK  223  A    between atoms: _550  and  _552
REMARK  224  A    between atoms: _552  and  _553
REMARK  225  A    between atoms: _555  and  _557
REMARK  226  A    between atoms: _557  and  _558
REMARK  227  A    between atoms: _557  and  _560
REMARK  228  A    between atoms: _560  and  _561
REMARK  229  A    between atoms: _564  and  _566
REMARK  230  A    between atoms: _566  and  _567
REMARK  231  A    between atoms: _569  and  _571
REMARK  232  A    between atoms: _571  and  _572
REMARK  233  A    between atoms: _571  and  _574
REMARK  234  A    between atoms: _574  and  _575
REMARK  235  A    between atoms: _580  and  _582
REMARK  236  A    between atoms: _582  and  _583
REMARK  237  A    between atoms: _582  and  _585
REMARK  238  A    between atoms: _585  and  _586
REMARK  239  A    between atoms: _586  and  _587
REMARK  240  A    between atoms: _594  and  _595
REMARK  241  A    between atoms: _595  and  _611
REMARK  242  A    between atoms: _596  and  _598
REMARK  243  A    between atoms: _598  and  _599
REMARK  244  A    between atoms: _599  and  _600
REMARK  245  A    between atoms: _604  and  _606
REMARK  246  A    between atoms: _606  and  _607
REMARK  247  A    between atoms: _606  and  _614
REMARK  248  A    between atoms: _607  and  _608
REMARK  249  A    between atoms: _608  and  _609
REMARK  250  A    between atoms: _609  and  _610
REMARK  251  A    between atoms: _610  and  _611
REMARK  252  A    between atoms: _616  and  _618
REMARK  253  A    between atoms: _618  and  _619
REMARK  254  A    between atoms: _618  and  _621
REMARK  255  A    between atoms: _621  and  _622
REMARK  256  A    between atoms: _625  and  _627
REMARK  257  A    between atoms: _627  and  _628
REMARK  258  A    between atoms: _630  and  _632
REMARK  259  A    between atoms: _632  and  _633
REMARK  260  A    between atoms: _636  and  _638
REMARK  261  A    between atoms: _638  and  _639
REMARK  262  A    between atoms: _638  and  _641
REMARK  263  A    between atoms: _641  and  _642
REMARK  264  A    between atoms: _647  and  _648
REMARK                            x       y       z     vdW  Elec       q    Type
REMARK                         _______ _______ _______ _____ _____    ______ ____
ROOT
ATOM      1  NE  ARG A   1      38.832  25.050  39.612  0.00  0.00    -0.265 N 
ATOM      2  HE  ARG A   1      39.715  24.674  39.211  0.00  0.00    +0.259 HD
ATOM      3  CZ  ARG A   1      37.696  24.743  38.991  0.00  0.00    +0.342 C 
ATOM      4  NH2 ARG A   1      36.534  25.184  39.454  0.00  0.00    -0.292 N 
ATOM      5 HH21 ARG A   1      36.506  25.775  40.309  0.00  0.00    +0.255 HD
ATOM      6 HH22 ARG A   1      35.651  24.939  38.962  0.00  0.00    +0.255 HD
ATOM      7  NH1 ARG A   1      37.726  23.997  37.892  0.00  0.00    -0.292 N 
ATOM      8 HH11 ARG A   1      38.635  23.655  37.520  0.00  0.00    +0.255 HD
ATOM      9 HH12 ARG A   1      36.840  23.755  37.404  0.00  0.00    +0.255 HD
ENDROOT
BRANCH   1  10
ATOM     10  CD  ARG A   1      38.935  25.874  40.814  0.00  0.00    +0.174 C 
BRANCH  10  11
ATOM     11  CG  ARG A   1      40.288  26.592  40.857  0.00  0.00    +0.045 C 
BRANCH  11  12
ATOM     12  CB  ARG A   1      40.407  27.589  42.010  0.00  0.00    +0.029 C 
BRANCH  12  13
ATOM     13  CA  ARG A   1      40.381  26.979  43.421  0.00  0.00    +0.133 C 
BRANCH  13  14
ATOM     14  N   ARG A   1      40.721  27.990  44.429  0.00  0.00    -0.239 NA
ATOM     15  H   ARG A   1      41.065  28.922  44.120  0.00  0.00    +0.142 HD
ENDBRANCH  13  14
BRANCH  13  16
ATOM     16  C   ARG A   1      41.297  25.755  43.525  0.00  0.00    +0.224 C 
ATOM     17  O   ARG A   1      40.833  24.617  43.438  0.00  0.00    -0.287 OA
ENDBRANCH  13  16
ENDBRANCH  12  13
ENDBRANCH  11  12
ENDBRANCH  10  11
ENDBRANCH   1  10
TORSDOF 6
REMARK  Name = ../refined-set-2016/2qrq/2qrq_pocket.pdb
REMARK  264 active torsions:
REMARK  status: ('A' for Active; 'I' for Inactive)
REMARK    1  A    between atoms: _1  and  _3
REMARK    2  A    between atoms: _3  and  _4
REMARK    3  A    between atoms: _3  and  _6
REMARK    4  A    between atoms: _6  and  _7
REMARK    5  A    between atoms: _12  and  _13
REMARK    6  A    between atoms: _15  and  _17
REMARK    7  A    between atoms: _17  and  _18
REMARK    8  A    between atoms: _17  and  _20
REMARK    9  A    between atoms: _20  and  _21
REMARK   10  A    between atoms: _24  and  _26
REMARK   11  A    between atoms: _26  and  _27
REMARK   12  A    between atoms: _26  and  _29
REMARK   13  A    between atoms: _29  and  _30
REMARK   14  A    between atoms: _30  and  _31
REMARK   15  A    between atoms: _34  and  _36
REMARK   16  A    between atoms: _36  and  _37
REMARK   17  A    between atoms: _39  and  _41
REMARK   18  A    between atoms: _41  and  _42
REMARK   19  A    between atoms: _41  and  _44
REMARK   20  A    between atoms: _44  and  _45
REMARK   21  A    between atoms: _50  and  _52
REMARK   22  A    between atoms: _52  and  _53
REMARK   23  A    between atoms: _55  and  _57
REMARK   24  A    between atoms: _57  and  _58
REMARK   25  A    between atoms: _60  and  _62
REMARK   26  A    between atoms: _62  and  _63
REMARK   27  A    between atoms: _62  and  _65
REMARK   28  A    between atoms: _65  and  _66
REMARK   29  A    between atoms: _69  and  _71
REMARK   30  A    between atoms: _71  and  _72
REMARK   31  A    between atoms: _74  and  _76
REMARK   32  A    between atoms: _76  and  _77
REMARK   33  A    between atoms: _76  and  _79
REMARK   34  A    between atoms: _79  and  _80
REMARK   35  A    between atoms: _80  and  _81
REMARK   36  A    between atoms: _81  and  _82
REMARK   37  A    between atoms: _91  and  _93
REMARK   38  A    between atoms: _93  and  _94
REMARK   39  A    between atoms: _93  and  _96
REMARK   40  A    between atoms: _96  and  _97
REMARK   41  A    between atoms: _100  and  _102
REMARK   42  A    between atoms: _102  and  _103
REMARK   43  A    between atoms: _106  and  _108
REMARK   44  A    between atoms: _108  and  _109
REMARK   45  A    between atoms: _108  and  _111
REMARK   46  A    between atoms: _111  and  _112
REMARK   47  A    between atoms: _118  and  _120
REMARK   48  A    between atoms: _120  and  _121
REMARK   49  A    between atoms: _120  and  _123
REMARK   50  A    between atoms: _123  and  _124
REMARK   51  A    between atoms: _127  and  _129
REMARK   52  A    between atoms: _129  and  _130
REMARK   53  A    between atoms: _129  and  _132
REMARK   54  A    between atoms: _132  and  _133
REMARK   55  A    between atoms: _138  and  _139
REMARK   56  A    between atoms: _142  and  _143
REMARK   57  A    between atoms: _148  and  _150
REMARK   58  A    between atoms: _150  and  _151
REMARK   59  A    between atoms: _150  and  _153
REMARK   60  A    between atoms: _153  and  _154
REMARK   61  A    between atoms: _159  and  _161
REMARK   62  A    between atoms: _161  and  _162
REMARK   63  A    between atoms: _161  and  _164
REMARK   64  A    between atoms: _164  and  _165
REMARK   65  A    between atoms: _168  and  _170
REMARK   66  A    between atoms: _170  and  _171
REMARK   67  A    between atoms: _170  and  _173
REMARK   68  A    between atoms: _173  and  _174
REMARK   69  A    between atoms: _179  and  _181
REMARK   70  A    between atoms: _181  and  _182
REMARK   71  A    between atoms: _181  and  _184
REMARK   72  A    between atoms: _184  and  _185
REMARK   73  A    between atoms: _191  and  _193
REMARK   74  A    between atoms: _193  and  _194
REMARK   75  A    between atoms: _193  and  _196
REMARK   76  A    between atoms: _196  and  _197
REMARK   77  A    between atoms: _203  and  _205
REMARK   78  A    between atoms: _205  and  _206
REMARK   79  A    between atoms: _205  and  _208
REMARK   80  A    between atoms: _208  and  _209
REMARK   81  A    between atoms: _209  and  _210
REMARK   82  A    between atoms: _213  and  _215
REMARK   83  A    between atoms: _215  and  _216
REMARK   84  A    between atoms: _215  and  _218
REMARK   85  A    between atoms: _218  and  _219
REMARK   86  A    between atoms: _219  and  _220
REMARK   87  A    between atoms: _220  and  _221
REMARK   88  A    between atoms: _230  and  _232
REMARK   89  A    between atoms: _232  and  _233
REMARK   90  A    between atoms: _232  and  _235
REMARK   91  A    between atoms: _235  and  _236
REMARK   92  A    between atoms: _236  and  _237
REMARK   93  A    between atoms: _240  and  _242
REMARK   94  A    between atoms: _242  and  _243
REMARK   95  A    between atoms: _242  and  _245
REMARK   96  A    between atoms: _245  and  _246
REMARK   97  A    between atoms: _251  and  _253
REMARK   98  A    between atoms: _253  and  _254
REMARK   99  A    between atoms: _253  and  _256
REMARK  100  A    between atoms: _256  and  _257
REMARK  101  A    between atoms: _260  and  _262
REMARK  102  A    between atoms: _262  and  _263
REMARK  103  A    between atoms: _262  and  _265
REMARK  104  A    between atoms: _265  and  _266
REMARK  105  A    between atoms: _269  and  _271
REMARK  106  A    between atoms: _271  and  _272
REMARK  107  A    between atoms: _271  and  _274
REMARK  108  A    between atoms: _274  and  _275
REMARK  109  A    between atoms: _280  and  _282
REMARK  110  A    between atoms: _282  and  _283
REMARK  111  A    between atoms: _282  and  _285
REMARK  112  A    between atoms: _285  and  _286
REMARK  113  A    between atoms: _289  and  _291
REMARK  114  A    between atoms: _291  and  _292
REMARK  115  A    between atoms: _291  and  _294
REMARK  116  A    between atoms: _294  and  _295
REMARK  117  A    between atoms: _300  and  _302
REMARK  118  A    between atoms: _302  and  _303
REMARK  119  A    between atoms: _302  and  _305
REMARK  120  A    between atoms: _305  and  _306
REMARK  121  A    between atoms: _311  and  _313
REMARK  122  A    between atoms: _313  and  _314
REMARK  123  A    between atoms: _313  and  _316
REMARK  124  A    between atoms: _316  and  _317
REMARK  125  A    between atoms: _320  and  _322
REMARK  126  A    between atoms: _322  and  _323
REMARK  127  A    between atoms: _322  and  _325
REMARK  128  A    between atoms: _328  and  _330
REMARK  129  A    between atoms: _330  and  _331
REMARK  130  A    between atoms: _330  and  _333
REMARK  131  A    between atoms: _333  and  _334
REMARK  132  A    between atoms: _337  and  _339
REMARK  133  A    between atoms: _339  and  _340
REMARK  134  A    between atoms: _343  and  _345
REMARK  135  A    between atoms: _345  and  _346
REMARK  136  A    between atoms: _345  and  _348
REMARK  137  A    between atoms: _348  and  _349
REMARK  138  A    between atoms: _352  and  _354
REMARK  139  A    between atoms: _354  and  _355
REMARK  140  A    between atoms: _354  and  _357
REMARK  141  A    between atoms: _357  and  _358
REMARK  142  A    between atoms: _358  and  _359
REMARK  143  A    between atoms: _362  and  _364
REMARK  144  A    between atoms: _364  and  _365
REMARK  145  A    between atoms: _364  and  _367
REMARK  146  A    between atoms: _367  and  _368
REMARK  147  A    between atoms: _373  and  _375
REMARK  148  A    between atoms: _375  and  _376
REMARK  149  A    between atoms: _378  and  _380
REMARK  150  A    between atoms: _380  and  _381
REMARK  151  A    between atoms: _380  and  _383
REMARK  152  A    between atoms: _386  and  _388
REMARK  153  A    between atoms: _388  and  _389
REMARK  154  A    between atoms: _392  and  _394
REMARK  155  A    between atoms: _394  and  _395
REMARK  156  A    between atoms: _394  and  _397
REMARK  157  A    between atoms: _397  and  _398
REMARK  158  A    between atoms: _403  and  _405
REMARK  159  A    between atoms: _405  and  _406
REMARK  160  A    between atoms: _405  and  _408
REMARK  161  A    between atoms: _408  and  _409
REMARK  162  A    between atoms: _409  and  _410
REMARK  163  A    between atoms: _410  and  _411
REMARK  164  A    between atoms: _411  and  _412
REMARK  165  A    between atoms: _416  and  _418
REMARK  166  A    between atoms: _418  and  _419
REMARK  167  A    between atoms: _418  and  _421
REMARK  168  A    between atoms: _421  and  _422
REMARK  169  A    between atoms: _425  and  _427
REMARK  170  A    between atoms: _427  and  _428
REMARK  171  A    between atoms: _427  and  _430
REMARK  172  A    between atoms: _430  and  _431
REMARK  173  A    between atoms: _436  and  _438
REMARK  174  A    between atoms: _438  and  _439
REMARK  175  A    between atoms: _441  and  _443
REMARK  176  A    between atoms: _443  and  _444
REMARK  177  A    between atoms: _443  and  _446
REMARK  178  A    between atoms: _446  and  _447
REMARK  179  A    between atoms: _447  and  _448
REMARK  180  A    between atoms: _448  and  _449
REMARK  181  A    between atoms: _449  and  _450
REMARK  182  A    between atoms: _454  and  _456
REMARK  183  A    between atoms: _456  and  _457
REMARK  184  A    between atoms: _456  and  _459
REMARK  185  A    between atoms: _459  and  _460
REMARK  186  A    between atoms: _460  and  _461
REMARK  187  A    between atoms: _461  and  _462
REMARK  188  A    between atoms: _471  and  _473
REMARK  189  A    between atoms: _473  and  _474
REMARK  190  A    between atoms: _473  and  _476
REMARK  191  A    between atoms: _476  and  _477
REMARK  192  A    between atoms: _482  and  _484
REMARK  193  A    between atoms: _484  and  _485
REMARK  194  A    between atoms: _484  and  _487
REMARK  195  A    between atoms: _487  and  _488
REMARK  196  A    between atoms: _493  and  _494
REMARK  197  A    between atoms: _496  and  _498
REMARK  198  A    between atoms: _498  and  _499
REMARK  199  A    between atoms: _498  and  _501
REMARK  200  A    between atoms: _501  and  _502
REMARK  201  A    between atoms: _502  and  _503
REMARK  202  A    between atoms: _503  and  _504
REMARK  203  A    between atoms: _504  and  _505
REMARK  204  A    between atoms: _509  and  _511
REMARK  205  A    between atoms: _511  and  _512
REMARK  206  A    between atoms: _511  and  _514
REMARK  207  A    between atoms: _514  and  _515
REMARK  208  A    between atoms: _517  and  _519
REMARK  209  A    between atoms: _519  and  _520
REMARK  210  A    between atoms: _519  and  _522
REMARK  211  A    between atoms: _522  and  _523
REMARK  212  A    between atoms: _526  and  _528
REMARK  213  A    between atoms: _528  and  _529
REMARK  214  A    between atoms: _528  and  _531
REMARK  215  A    between atoms: _531  and  _532
REMARK  216  A    between atoms: _532  and  _533
REMARK  217  A    between atoms: _536  and  _538
REMARK  218  A    between atoms: _538  and  _539
REMARK  219  A    between atoms: _542  and  _544
REMARK  220  A    between atoms: _544  and  _545
REMARK  221  A    between atoms: _544  and  _547
REMARK  222  A    between atoms: _547  and  _548
REMARK  223  A    between atoms: _550  and  _552
REMARK  224  A    between atoms: _552  and  _553
REMARK  225  A    between atoms: _555  and  _557
REMARK  226  A    between atoms: _557  and  _558
REMARK  227  A    between atoms: _557  and  _560
REMARK  228  A    between atoms: _560  and  _561
REMARK  229  A    between atoms: _564  and  _566
REMARK  230  A    between atoms: _566  and  _567
REMARK  231  A    between atoms: _569  and  _571
REMARK  232  A    between atoms: _571  and  _572
REMARK  233  A    between atoms: _571  and  _574
REMARK  234  A    between atoms: _574  and  _575
REMARK  235  A    between atoms: _580  and  _582
REMARK  236  A    between atoms: _582  and  _583
REMARK  237  A    between atoms: _582  and  _585
REMARK  238  A    between atoms: _585  and  _586
REMARK  239  A    between atoms: _586  and  _587
REMARK  240  A    between atoms: _594  and  _595
REMARK  241  A    between atoms: _595  and  _611
REMARK  242  A    between atoms: _596  and  _598
REMARK  243  A    between atoms: _598  and  _599
REMARK  244  A    between atoms: _599  and  _600
REMARK  245  A    between atoms: _604  and  _606
REMARK  246  A    between atoms: _606  and  _607
REMARK  247  A    between atoms: _606  and  _614
REMARK  248  A    between atoms: _607  and  _608
REMARK  249  A    between atoms: _608  and  _609
REMARK  250  A    between atoms: _609  and  _610
REMARK  251  A    between atoms: _610  and  _611
REMARK  252  A    between atoms: _616  and  _618
REMARK  253  A    between atoms: _618  and  _619
REMARK  254  A    between atoms: _618  and  _621
REMARK  255  A    between atoms: _621  and  _622
REMARK  256  A    between atoms: _625  and  _627
REMARK  257  A    between atoms: _627  and  _628
REMARK  258  A    between atoms: _630  and  _632
REMARK  259  A    between atoms: _632  and  _633
REMARK  260  A    between atoms: _636  and  _638
REMARK  261  A    between atoms: _638  and  _639
REMARK  262  A    between atoms: _638  and  _641
REMARK  263  A    between atoms: _641  and  _642
REMARK  264  A    between atoms: _647  and  _648
REMARK                            x       y       z     vdW  Elec       q    Type
REMARK                         _______ _______ _______ _____ _____    ______ ____
ROOT
ATOM      1  CA  GLU A   1      40.601  20.757  43.425  0.00  0.00    +0.134 C 
ENDROOT
BRANCH   1   2
ATOM      2  N   GLU A   1      40.183  21.879  44.254  0.00  0.00    -0.239 NA
ATOM      3  H   GLU A   1      40.618  22.811  44.103  0.00  0.00    +0.142 HD
ENDBRANCH   1   2
BRANCH   1   4
ATOM      4  C   GLU A   1      41.281  19.664  44.239  0.00  0.00    +0.224 C 
ATOM      5  O   GLU A   1      40.952  18.483  44.084  0.00  0.00    -0.287 OA
ENDBRANCH   1   4
BRANCH   1   6
ATOM      6  CB  GLU A   1      41.494  21.245  42.288  0.00  0.00    +0.037 C 
BRANCH   6   7
ATOM      7  CG  GLU A   1      40.728  22.066  41.260  0.00  0.00    +0.116 C 
BRANCH   7   8
ATOM      8  CD  GLU A   1      41.615  22.677  40.195  0.00  0.00    +0.365 C 
ATOM      9  OE2 GLU A   1      42.855  22.623  40.332  0.00  0.00    -0.246 OA
ATOM     10  OE1 GLU A   1      41.057  23.222  39.216  0.00  0.00    -0.246 OA
ENDBRANCH   7   8
ENDBRANCH   6   7
ENDBRANCH   1   6
TORSDOF 5
REMARK  Name = ../refined-set-2016/2qrq/2qrq_pocket.pdb
REMARK  264 active torsions:
REMARK  status: ('A' for Active; 'I' for Inactive)
REMARK    1  A    between atoms: _1  and  _3
REMARK    2  A    between atoms: _3  and  _4
REMARK    3  A    between atoms: _3  and  _6
REMARK    4  A    between atoms: _6  and  _7
REMARK    5  A    between atoms: _12  and  _13
REMARK    6  A    between atoms: _15  and  _17
REMARK    7  A    between atoms: _17  and  _18
REMARK    8  A    between atoms: _17  and  _20
REMARK    9  A    between atoms: _20  and  _21
REMARK   10  A    between atoms: _24  and  _26
REMARK   11  A    between atoms: _26  and  _27
REMARK   12  A    between atoms: _26  and  _29
REMARK   13  A    between atoms: _29  and  _30
REMARK   14  A    between atoms: _30  and  _31
REMARK   15  A    between atoms: _34  and  _36
REMARK   16  A    between atoms: _36  and  _37
REMARK   17  A    between atoms: _39  and  _41
REMARK   18  A    between atoms: _41  and  _42
REMARK   19  A    between atoms: _41  and  _44
REMARK   20  A    between atoms: _44  and  _45
REMARK   21  A    between atoms: _50  and  _52
REMARK   22  A    between atoms: _52  and  _53
REMARK   23  A    between atoms: _55  and  _57
REMARK   24  A    between atoms: _57  and  _58
REMARK   25  A    between atoms: _60  and  _62
REMARK   26  A    between atoms: _62  and  _63
REMARK   27  A    between atoms: _62  and  _65
REMARK   28  A    between atoms: _65  and  _66
REMARK   29  A    between atoms: _69  and  _71
REMARK   30  A    between atoms: _71  and  _72
REMARK   31  A    between atoms: _74  and  _76
REMARK   32  A    between atoms: _76  and  _77
REMARK   33  A    between atoms: _76  and  _79
REMARK   34  A    between atoms: _79  and  _80
REMARK   35  A    between atoms: _80  and  _81
REMARK   36  A    between atoms: _81  and  _82
REMARK   37  A    between atoms: _91  and  _93
REMARK   38  A    between atoms: _93  and  _94
REMARK   39  A    between atoms: _93  and  _96
REMARK   40  A    between atoms: _96  and  _97
REMARK   41  A    between atoms: _100  and  _102
REMARK   42  A    between atoms: _102  and  _103
REMARK   43  A    between atoms: _106  and  _108
REMARK   44  A    between atoms: _108  and  _109
REMARK   45  A    between atoms: _108  and  _111
REMARK   46  A    between atoms: _111  and  _112
REMARK   47  A    between atoms: _118  and  _120
REMARK   48  A    between atoms: _120  and  _121
REMARK   49  A    between atoms: _120  and  _123
REMARK   50  A    between atoms: _123  and  _124
REMARK   51  A    between atoms: _127  and  _129
REMARK   52  A    between atoms: _129  and  _130
REMARK   53  A    between atoms: _129  and  _132
REMARK   54  A    between atoms: _132  and  _133
REMARK   55  A    between atoms: _138  and  _139
REMARK   56  A    between atoms: _142  and  _143
REMARK   57  A    between atoms: _148  and  _150
REMARK   58  A    between atoms: _150  and  _151
REMARK   59  A    between atoms: _150  and  _153
REMARK   60  A    between atoms: _153  and  _154
REMARK   61  A    between atoms: _159  and  _161
REMARK   62  A    between atoms: _161  and  _162
REMARK   63  A    between atoms: _161  and  _164
REMARK   64  A    between atoms: _164  and  _165
REMARK   65  A    between atoms: _168  and  _170
REMARK   66  A    between atoms: _170  and  _171
REMARK   67  A    between atoms: _170  and  _173
REMARK   68  A    between atoms: _173  and  _174
REMARK   69  A    between atoms: _179  and  _181
REMARK   70  A    between atoms: _181  and  _182
REMARK   71  A    between atoms: _181  and  _184
REMARK   72  A    between atoms: _184  and  _185
REMARK   73  A    between atoms: _191  and  _193
REMARK   74  A    between atoms: _193  and  _194
REMARK   75  A    between atoms: _193  and  _196
REMARK   76  A    between atoms: _196  and  _197
REMARK   77  A    between atoms: _203  and  _205
REMARK   78  A    between atoms: _205  and  _206
REMARK   79  A    between atoms: _205  and  _208
REMARK   80  A    between atoms: _208  and  _209
REMARK   81  A    between atoms: _209  and  _210
REMARK   82  A    between atoms: _213  and  _215
REMARK   83  A    between atoms: _215  and  _216
REMARK   84  A    between atoms: _215  and  _218
REMARK   85  A    between atoms: _218  and  _219
REMARK   86  A    between atoms: _219  and  _220
REMARK   87  A    between atoms: _220  and  _221
REMARK   88  A    between atoms: _230  and  _232
REMARK   89  A    between atoms: _232  and  _233
REMARK   90  A    between atoms: _232  and  _235
REMARK   91  A    between atoms: _235  and  _236
REMARK   92  A    between atoms: _236  and  _237
REMARK   93  A    between atoms: _240  and  _242
REMARK   94  A    between atoms: _242  and  _243
REMARK   95  A    between atoms: _242  and  _245
REMARK   96  A    between atoms: _245  and  _246
REMARK   97  A    between atoms: _251  and  _253
REMARK   98  A    between atoms: _253  and  _254
REMARK   99  A    between atoms: _253  and  _256
REMARK  100  A    between atoms: _256  and  _257
REMARK  101  A    between atoms: _260  and  _262
REMARK  102  A    between atoms: _262  and  _263
REMARK  103  A    between atoms: _262  and  _265
REMARK  104  A    between atoms: _265  and  _266
REMARK  105  A    between atoms: _269  and  _271
REMARK  106  A    between atoms: _271  and  _272
REMARK  107  A    between atoms: _271  and  _274
REMARK  108  A    between atoms: _274  and  _275
REMARK  109  A    between atoms: _280  and  _282
REMARK  110  A    between atoms: _282  and  _283
REMARK  111  A    between atoms: _282  and  _285
REMARK  112  A    between atoms: _285  and  _286
REMARK  113  A    between atoms: _289  and  _291
REMARK  114  A    between atoms: _291  and  _292
REMARK  115  A    between atoms: _291  and  _294
REMARK  116  A    between atoms: _294  and  _295
REMARK  117  A    between atoms: _300  and  _302
REMARK  118  A    between atoms: _302  and  _303
REMARK  119  A    between atoms: _302  and  _305
REMARK  120  A    between atoms: _305  and  _306
REMARK  121  A    between atoms: _311  and  _313
REMARK  122  A    between atoms: _313  and  _314
REMARK  123  A    between atoms: _313  and  _316
REMARK  124  A    between atoms: _316  and  _317
REMARK  125  A    between atoms: _320  and  _322
REMARK  126  A    between atoms: _322  and  _323
REMARK  127  A    between atoms: _322  and  _325
REMARK  128  A    between atoms: _328  and  _330
REMARK  129  A    between atoms: _330  and  _331
REMARK  130  A    between atoms: _330  and  _333
REMARK  131  A    between atoms: _333  and  _334
REMARK  132  A    between atoms: _337  and  _339
REMARK  133  A    between atoms: _339  and  _340
REMARK  134  A    between atoms: _343  and  _345
REMARK  135  A    between atoms: _345  and  _346
REMARK  136  A    between atoms: _345  and  _348
REMARK  137  A    between atoms: _348  and  _349
REMARK  138  A    between atoms: _352  and  _354
REMARK  139  A    between atoms: _354  and  _355
REMARK  140  A    between atoms: _354  and  _357
REMARK  141  A    between atoms: _357  and  _358
REMARK  142  A    between atoms: _358  and  _359
REMARK  143  A    between atoms: _362  and  _364
REMARK  144  A    between atoms: _364  and  _365
REMARK  145  A    between atoms: _364  and  _367
REMARK  146  A    between atoms: _367  and  _368
REMARK  147  A    between atoms: _373  and  _375
REMARK  148  A    between atoms: _375  and  _376
REMARK  149  A    between atoms: _378  and  _380
REMARK  150  A    between atoms: _380  and  _381
REMARK  151  A    between atoms: _380  and  _383
REMARK  152  A    between atoms: _386  and  _388
REMARK  153  A    between atoms: _388  and  _389
REMARK  154  A    between atoms: _392  and  _394
REMARK  155  A    between atoms: _394  and  _395
REMARK  156  A    between atoms: _394  and  _397
REMARK  157  A    between atoms: _397  and  _398
REMARK  158  A    between atoms: _403  and  _405
REMARK  159  A    between atoms: _405  and  _406
REMARK  160  A    between atoms: _405  and  _408
REMARK  161  A    between atoms: _408  and  _409
REMARK  162  A    between atoms: _409  and  _410
REMARK  163  A    between atoms: _410  and  _411
REMARK  164  A    between atoms: _411  and  _412
REMARK  165  A    between atoms: _416  and  _418
REMARK  166  A    between atoms: _418  and  _419
REMARK  167  A    between atoms: _418  and  _421
REMARK  168  A    between atoms: _421  and  _422
REMARK  169  A    between atoms: _425  and  _427
REMARK  170  A    between atoms: _427  and  _428
REMARK  171  A    between atoms: _427  and  _430
REMARK  172  A    between atoms: _430  and  _431
REMARK  173  A    between atoms: _436  and  _438
REMARK  174  A    between atoms: _438  and  _439
REMARK  175  A    between atoms: _441  and  _443
REMARK  176  A    between atoms: _443  and  _444
REMARK  177  A    between atoms: _443  and  _446
REMARK  178  A    between atoms: _446  and  _447
REMARK  179  A    between atoms: _447  and  _448
REMARK  180  A    between atoms: _448  and  _449
REMARK  181  A    between atoms: _449  and  _450
REMARK  182  A    between atoms: _454  and  _456
REMARK  183  A    between atoms: _456  and  _457
REMARK  184  A    between atoms: _456  and  _459
REMARK  185  A    between atoms: _459  and  _460
REMARK  186  A    between atoms: _460  and  _461
REMARK  187  A    between atoms: _461  and  _462
REMARK  188  A    between atoms: _471  and  _473
REMARK  189  A    between atoms: _473  and  _474
REMARK  190  A    between atoms: _473  and  _476
REMARK  191  A    between atoms: _476  and  _477
REMARK  192  A    between atoms: _482  and  _484
REMARK  193  A    between atoms: _484  and  _485
REMARK  194  A    between atoms: _484  and  _487
REMARK  195  A    between atoms: _487  and  _488
REMARK  196  A    between atoms: _493  and  _494
REMARK  197  A    between atoms: _496  and  _498
REMARK  198  A    between atoms: _498  and  _499
REMARK  199  A    between atoms: _498  and  _501
REMARK  200  A    between atoms: _501  and  _502
REMARK  201  A    between atoms: _502  and  _503
REMARK  202  A    between atoms: _503  and  _504
REMARK  203  A    between atoms: _504  and  _505
REMARK  204  A    between atoms: _509  and  _511
REMARK  205  A    between atoms: _511  and  _512
REMARK  206  A    between atoms: _511  and  _514
REMARK  207  A    between atoms: _514  and  _515
REMARK  208  A    between atoms: _517  and  _519
REMARK  209  A    between atoms: _519  and  _520
REMARK  210  A    between atoms: _519  and  _522
REMARK  211  A    between atoms: _522  and  _523
REMARK  212  A    between atoms: _526  and  _528
REMARK  213  A    between atoms: _528  and  _529
REMARK  214  A    between atoms: _528  and  _531
REMARK  215  A    between atoms: _531  and  _532
REMARK  216  A    between atoms: _532  and  _533
REMARK  217  A    between atoms: _536  and  _538
REMARK  218  A    between atoms: _538  and  _539
REMARK  219  A    between atoms: _542  and  _544
REMARK  220  A    between atoms: _544  and  _545
REMARK  221  A    between atoms: _544  and  _547
REMARK  222  A    between atoms: _547  and  _548
REMARK  223  A    between atoms: _550  and  _552
REMARK  224  A    between atoms: _552  and  _553
REMARK  225  A    between atoms: _555  and  _557
REMARK  226  A    between atoms: _557  and  _558
REMARK  227  A    between atoms: _557  and  _560
REMARK  228  A    between atoms: _560  and  _561
REMARK  229  A    between atoms: _564  and  _566
REMARK  230  A    between atoms: _566  and  _567
REMARK  231  A    between atoms: _569  and  _571
REMARK  232  A    between atoms: _571  and  _572
REMARK  233  A    between atoms: _571  and  _574
REMARK  234  A    between atoms: _574  and  _575
REMARK  235  A    between atoms: _580  and  _582
REMARK  236  A    between atoms: _582  and  _583
REMARK  237  A    between atoms: _582  and  _585
REMARK  238  A    between atoms: _585  and  _586
REMARK  239  A    between atoms: _586  and  _587
REMARK  240  A    between atoms: _594  and  _595
REMARK  241  A    between atoms: _595  and  _611
REMARK  242  A    between atoms: _596  and  _598
REMARK  243  A    between atoms: _598  and  _599
REMARK  244  A    between atoms: _599  and  _600
REMARK  245  A    between atoms: _604  and  _606
REMARK  246  A    between atoms: _606  and  _607
REMARK  247  A    between atoms: _606  and  _614
REMARK  248  A    between atoms: _607  and  _608
REMARK  249  A    between atoms: _608  and  _609
REMARK  250  A    between atoms: _609  and  _610
REMARK  251  A    between atoms: _610  and  _611
REMARK  252  A    between atoms: _616  and  _618
REMARK  253  A    between atoms: _618  and  _619
REMARK  254  A    between atoms: _618  and  _621
REMARK  255  A    between atoms: _621  and  _622
REMARK  256  A    between atoms: _625  and  _627
REMARK  257  A    between atoms: _627  and  _628
REMARK  258  A    between atoms: _630  and  _632
REMARK  259  A    between atoms: _632  and  _633
REMARK  260  A    between atoms: _636  and  _638
REMARK  261  A    between atoms: _638  and  _639
REMARK  262  A    between atoms: _638  and  _641
REMARK  263  A    between atoms: _641  and  _642
REMARK  264  A    between atoms: _647  and  _648
REMARK                            x       y       z     vdW  Elec       q    Type
REMARK                         _______ _______ _______ _____ _____    ______ ____
ROOT
ATOM      1  C   ASP A   2      40.609  17.855  33.428  0.00  0.00    +0.241 C 
ATOM      2  O   ASP A   2      40.746  16.834  34.110  0.00  0.00    -0.273 OA
ATOM      3  N   THR A   3      41.429  18.899  33.524  0.00  0.00    -0.295 N 
ATOM      4  H   THR A   3      41.234  19.750  32.959  0.00  0.00    +0.150 HD
ENDROOT
BRANCH   1   5
ATOM      5  CA  ASP A   2      39.473  17.956  32.399  0.00  0.00    +0.160 C 
BRANCH   5   8
ATOM      6  C   ASN A   1      37.734  16.827  33.729  0.00  0.00    +0.239 C 
ATOM      7  O   ASN A   1      37.712  17.702  34.605  0.00  0.00    -0.274 OA
ATOM      8  N   ASP A   2      38.458  16.919  32.615  0.00  0.00    -0.297 N 
ATOM      9  H   ASP A   2      38.296  16.221  31.861  0.00  0.00    +0.150 HD
BRANCH   6  10
ATOM     10  CA  ASN A   1      36.933  15.537  33.876  0.00  0.00    +0.154 C 
BRANCH  10  11
ATOM     11  N   ASN A   1      37.718  14.606  34.680  0.00  0.00    -0.238 NA
ATOM     12  H   ASN A   1      37.461  14.465  35.678  0.00  0.00    +0.142 HD
ENDBRANCH  10  11
BRANCH  10  13
ATOM     13  CB  ASN A   1      35.560  15.789  34.519  0.00  0.00    +0.111 C 
BRANCH  13  14
ATOM     14  CG  ASN A   1      34.522  16.299  33.529  0.00  0.00    +0.221 C 
ATOM     15  ND2 ASN A   1      33.487  16.958  34.047  0.00  0.00    -0.329 N 
ATOM     16 HD21 ASN A   1      33.427  17.106  35.075  0.00  0.00    +0.145 HD
ATOM     17 HD22 ASN A   1      32.739  17.324  33.424  0.00  0.00    +0.145 HD
ATOM     18  OD1 ASN A   1      34.640  16.097  32.320  0.00  0.00    -0.275 OA
ENDBRANCH  13  14
ENDBRANCH  10  13
ENDBRANCH   6  10
ENDBRANCH   5   8
BRANCH   5  19
ATOM     19  CB  ASP A   2      38.855  19.361  32.342  0.00  0.00    +0.143 C 
BRANCH  19  20
ATOM     20  CG  ASP A   2      39.559  20.252  31.341  0.00  0.00    +0.367 C 
ATOM     21  OD2 ASP A   2      40.636  20.783  31.670  0.00  0.00    -0.246 OA
ATOM     22  OD1 ASP A   2      39.060  20.378  30.203  0.00  0.00    -0.246 OA
ENDBRANCH  19  20
ENDBRANCH   5  19
ENDBRANCH   1   5
BRANCH   3  23
ATOM     23  CA  THR A   3      42.600  18.881  34.406  0.00  0.00    +0.176 C 
BRANCH  23  24
ATOM     24  C   THR A   3      42.262  19.269  35.847  0.00  0.00    +0.243 C 
ATOM     25  O   THR A   3      43.130  19.249  36.727  0.00  0.00    -0.273 OA
ATOM     26  N   HIS A   4      41.004  19.611  36.093  0.00  0.00    -0.298 N 
ATOM     27  H   HIS A   4      40.290  19.512  35.343  0.00  0.00    +0.150 HD
BRANCH  26  28
ATOM     28  CA  HIS A   4      40.605  20.126  37.407  0.00  0.00    +0.143 C 
BRANCH  28  29
ATOM     29  C   HIS A   4      40.896  19.148  38.555  0.00  0.00    +0.227 C 
ATOM     30  O   HIS A   4      41.382  19.562  39.607  0.00  0.00    -0.286 OA
ENDBRANCH  28  29
BRANCH  28  31
ATOM     31  CB  HIS A   4      39.149  20.605  37.391  0.00  0.00    +0.075 C 
BRANCH  31  32
ATOM     32  CG  HIS A   4      38.799  21.418  36.183  0.00  0.00    +0.082 A 
ATOM     33  ND1 HIS A   4      37.517  21.497  35.686  0.00  0.00    -0.227 NA
ATOM     34  CE1 HIS A   4      37.509  22.267  34.613  0.00  0.00    +0.199 A 
ATOM     35  NE2 HIS A   4      38.743  22.688  34.393  0.00  0.00    -0.221 NA
ATOM     36  CD2 HIS A   4      39.569  22.169  35.358  0.00  0.00    +0.115 A 
ENDBRANCH  31  32
ENDBRANCH  28  31
ENDBRANCH  26  28
ENDBRANCH  23  24
BRANCH  23  37
ATOM     37  CB  THR A   3      43.711  19.823  33.899  0.00  0.00    +0.137 C 
ATOM     38  CG2 THR A   3      44.113  19.474  32.464  0.00  0.00    +0.034 C 
BRANCH  37  39
ATOM     39  OG1 THR A   3      43.249  21.174  33.951  0.00  0.00    -0.382 OA
ATOM     40  HG1 THR A   3      43.018  21.407  34.885  0.00  0.00    +0.210 HD
ENDBRANCH  37  39
ENDBRANCH  23  37
ENDBRANCH   3  23
TORSDOF 16
REMARK  Name = ../refined-set-2016/2qrq/2qrq_pocket.pdb
REMARK  264 active torsions:
REMARK  status: ('A' for Active; 'I' for Inactive)
REMARK    1  A    between atoms: _1  and  _3
REMARK    2  A    between atoms: _3  and  _4
REMARK    3  A    between atoms: _3  and  _6
REMARK    4  A    between atoms: _6  and  _7
REMARK    5  A    between atoms: _12  and  _13
REMARK    6  A    between atoms: _15  and  _17
REMARK    7  A    between atoms: _17  and  _18
REMARK    8  A    between atoms: _17  and  _20
REMARK    9  A    between atoms: _20  and  _21
REMARK   10  A    between atoms: _24  and  _26
REMARK   11  A    between atoms: _26  and  _27
REMARK   12  A    between atoms: _26  and  _29
REMARK   13  A    between atoms: _29  and  _30
REMARK   14  A    between atoms: _30  and  _31
REMARK   15  A    between atoms: _34  and  _36
REMARK   16  A    between atoms: _36  and  _37
REMARK   17  A    between atoms: _39  and  _41
REMARK   18  A    between atoms: _41  and  _42
REMARK   19  A    between atoms: _41  and  _44
REMARK   20  A    between atoms: _44  and  _45
REMARK   21  A    between atoms: _50  and  _52
REMARK   22  A    between atoms: _52  and  _53
REMARK   23  A    between atoms: _55  and  _57
REMARK   24  A    between atoms: _57  and  _58
REMARK   25  A    between atoms: _60  and  _62
REMARK   26  A    between atoms: _62  and  _63
REMARK   27  A    between atoms: _62  and  _65
REMARK   28  A    between atoms: _65  and  _66
REMARK   29  A    between atoms: _69  and  _71
REMARK   30  A    between atoms: _71  and  _72
REMARK   31  A    between atoms: _74  and  _76
REMARK   32  A    between atoms: _76  and  _77
REMARK   33  A    between atoms: _76  and  _79
REMARK   34  A    between atoms: _79  and  _80
REMARK   35  A    between atoms: _80  and  _81
REMARK   36  A    between atoms: _81  and  _82
REMARK   37  A    between atoms: _91  and  _93
REMARK   38  A    between atoms: _93  and  _94
REMARK   39  A    between atoms: _93  and  _96
REMARK   40  A    between atoms: _96  and  _97
REMARK   41  A    between atoms: _100  and  _102
REMARK   42  A    between atoms: _102  and  _103
REMARK   43  A    between atoms: _106  and  _108
REMARK   44  A    between atoms: _108  and  _109
REMARK   45  A    between atoms: _108  and  _111
REMARK   46  A    between atoms: _111  and  _112
REMARK   47  A    between atoms: _118  and  _120
REMARK   48  A    between atoms: _120  and  _121
REMARK   49  A    between atoms: _120  and  _123
REMARK   50  A    between atoms: _123  and  _124
REMARK   51  A    between atoms: _127  and  _129
REMARK   52  A    between atoms: _129  and  _130
REMARK   53  A    between atoms: _129  and  _132
REMARK   54  A    between atoms: _132  and  _133
REMARK   55  A    between atoms: _138  and  _139
REMARK   56  A    between atoms: _142  and  _143
REMARK   57  A    between atoms: _148  and  _150
REMARK   58  A    between atoms: _150  and  _151
REMARK   59  A    between atoms: _150  and  _153
REMARK   60  A    between atoms: _153  and  _154
REMARK   61  A    between atoms: _159  and  _161
REMARK   62  A    between atoms: _161  and  _162
REMARK   63  A    between atoms: _161  and  _164
REMARK   64  A    between atoms: _164  and  _165
REMARK   65  A    between atoms: _168  and  _170
REMARK   66  A    between atoms: _170  and  _171
REMARK   67  A    between atoms: _170  and  _173
REMARK   68  A    between atoms: _173  and  _174
REMARK   69  A    between atoms: _179  and  _181
REMARK   70  A    between atoms: _181  and  _182
REMARK   71  A    between atoms: _181  and  _184
REMARK   72  A    between atoms: _184  and  _185
REMARK   73  A    between atoms: _191  and  _193
REMARK   74  A    between atoms: _193  and  _194
REMARK   75  A    between atoms: _193  and  _196
REMARK   76  A    between atoms: _196  and  _197
REMARK   77  A    between atoms: _203  and  _205
REMARK   78  A    between atoms: _205  and  _206
REMARK   79  A    between atoms: _205  and  _208
REMARK   80  A    between atoms: _208  and  _209
REMARK   81  A    between atoms: _209  and  _210
REMARK   82  A    between atoms: _213  and  _215
REMARK   83  A    between atoms: _215  and  _216
REMARK   84  A    between atoms: _215  and  _218
REMARK   85  A    between atoms: _218  and  _219
REMARK   86  A    between atoms: _219  and  _220
REMARK   87  A    between atoms: _220  and  _221
REMARK   88  A    between atoms: _230  and  _232
REMARK   89  A    between atoms: _232  and  _233
REMARK   90  A    between atoms: _232  and  _235
REMARK   91  A    between atoms: _235  and  _236
REMARK   92  A    between atoms: _236  and  _237
REMARK   93  A    between atoms: _240  and  _242
REMARK   94  A    between atoms: _242  and  _243
REMARK   95  A    between atoms: _242  and  _245
REMARK   96  A    between atoms: _245  and  _246
REMARK   97  A    between atoms: _251  and  _253
REMARK   98  A    between atoms: _253  and  _254
REMARK   99  A    between atoms: _253  and  _256
REMARK  100  A    between atoms: _256  and  _257
REMARK  101  A    between atoms: _260  and  _262
REMARK  102  A    between atoms: _262  and  _263
REMARK  103  A    between atoms: _262  and  _265
REMARK  104  A    between atoms: _265  and  _266
REMARK  105  A    between atoms: _269  and  _271
REMARK  106  A    between atoms: _271  and  _272
REMARK  107  A    between atoms: _271  and  _274
REMARK  108  A    between atoms: _274  and  _275
REMARK  109  A    between atoms: _280  and  _282
REMARK  110  A    between atoms: _282  and  _283
REMARK  111  A    between atoms: _282  and  _285
REMARK  112  A    between atoms: _285  and  _286
REMARK  113  A    between atoms: _289  and  _291
REMARK  114  A    between atoms: _291  and  _292
REMARK  115  A    between atoms: _291  and  _294
REMARK  116  A    between atoms: _294  and  _295
REMARK  117  A    between atoms: _300  and  _302
REMARK  118  A    between atoms: _302  and  _303
REMARK  119  A    between atoms: _302  and  _305
REMARK  120  A    between atoms: _305  and  _306
REMARK  121  A    between atoms: _311  and  _313
REMARK  122  A    between atoms: _313  and  _314
REMARK  123  A    between atoms: _313  and  _316
REMARK  124  A    between atoms: _316  and  _317
REMARK  125  A    between atoms: _320  and  _322
REMARK  126  A    between atoms: _322  and  _323
REMARK  127  A    between atoms: _322  and  _325
REMARK  128  A    between atoms: _328  and  _330
REMARK  129  A    between atoms: _330  and  _331
REMARK  130  A    between atoms: _330  and  _333
REMARK  131  A    between atoms: _333  and  _334
REMARK  132  A    between atoms: _337  and  _339
REMARK  133  A    between atoms: _339  and  _340
REMARK  134  A    between atoms: _343  and  _345
REMARK  135  A    between atoms: _345  and  _346
REMARK  136  A    between atoms: _345  and  _348
REMARK  137  A    between atoms: _348  and  _349
REMARK  138  A    between atoms: _352  and  _354
REMARK  139  A    between atoms: _354  and  _355
REMARK  140  A    between atoms: _354  and  _357
REMARK  141  A    between atoms: _357  and  _358
REMARK  142  A    between atoms: _358  and  _359
REMARK  143  A    between atoms: _362  and  _364
REMARK  144  A    between atoms: _364  and  _365
REMARK  145  A    between atoms: _364  and  _367
REMARK  146  A    between atoms: _367  and  _368
REMARK  147  A    between atoms: _373  and  _375
REMARK  148  A    between atoms: _375  and  _376
REMARK  149  A    between atoms: _378  and  _380
REMARK  150  A    between atoms: _380  and  _381
REMARK  151  A    between atoms: _380  and  _383
REMARK  152  A    between atoms: _386  and  _388
REMARK  153  A    between atoms: _388  and  _389
REMARK  154  A    between atoms: _392  and  _394
REMARK  155  A    between atoms: _394  and  _395
REMARK  156  A    between atoms: _394  and  _397
REMARK  157  A    between atoms: _397  and  _398
REMARK  158  A    between atoms: _403  and  _405
REMARK  159  A    between atoms: _405  and  _406
REMARK  160  A    between atoms: _405  and  _408
REMARK  161  A    between atoms: _408  and  _409
REMARK  162  A    between atoms: _409  and  _410
REMARK  163  A    between atoms: _410  and  _411
REMARK  164  A    between atoms: _411  and  _412
REMARK  165  A    between atoms: _416  and  _418
REMARK  166  A    between atoms: _418  and  _419
REMARK  167  A    between atoms: _418  and  _421
REMARK  168  A    between atoms: _421  and  _422
REMARK  169  A    between atoms: _425  and  _427
REMARK  170  A    between atoms: _427  and  _428
REMARK  171  A    between atoms: _427  and  _430
REMARK  172  A    between atoms: _430  and  _431
REMARK  173  A    between atoms: _436  and  _438
REMARK  174  A    between atoms: _438  and  _439
REMARK  175  A    between atoms: _441  and  _443
REMARK  176  A    between atoms: _443  and  _444
REMARK  177  A    between atoms: _443  and  _446
REMARK  178  A    between atoms: _446  and  _447
REMARK  179  A    between atoms: _447  and  _448
REMARK  180  A    between atoms: _448  and  _449
REMARK  181  A    between atoms: _449  and  _450
REMARK  182  A    between atoms: _454  and  _456
REMARK  183  A    between atoms: _456  and  _457
REMARK  184  A    between atoms: _456  and  _459
REMARK  185  A    between atoms: _459  and  _460
REMARK  186  A    between atoms: _460  and  _461
REMARK  187  A    between atoms: _461  and  _462
REMARK  188  A    between atoms: _471  and  _473
REMARK  189  A    between atoms: _473  and  _474
REMARK  190  A    between atoms: _473  and  _476
REMARK  191  A    between atoms: _476  and  _477
REMARK  192  A    between atoms: _482  and  _484
REMARK  193  A    between atoms: _484  and  _485
REMARK  194  A    between atoms: _484  and  _487
REMARK  195  A    between atoms: _487  and  _488
REMARK  196  A    between atoms: _493  and  _494
REMARK  197  A    between atoms: _496  and  _498
REMARK  198  A    between atoms: _498  and  _499
REMARK  199  A    between atoms: _498  and  _501
REMARK  200  A    between atoms: _501  and  _502
REMARK  201  A    between atoms: _502  and  _503
REMARK  202  A    between atoms: _503  and  _504
REMARK  203  A    between atoms: _504  and  _505
REMARK  204  A    between atoms: _509  and  _511
REMARK  205  A    between atoms: _511  and  _512
REMARK  206  A    between atoms: _511  and  _514
REMARK  207  A    between atoms: _514  and  _515
REMARK  208  A    between atoms: _517  and  _519
REMARK  209  A    between atoms: _519  and  _520
REMARK  210  A    between atoms: _519  and  _522
REMARK  211  A    between atoms: _522  and  _523
REMARK  212  A    between atoms: _526  and  _528
REMARK  213  A    between atoms: _528  and  _529
REMARK  214  A    between atoms: _528  and  _531
REMARK  215  A    between atoms: _531  and  _532
REMARK  216  A    between atoms: _532  and  _533
REMARK  217  A    between atoms: _536  and  _538
REMARK  218  A    between atoms: _538  and  _539
REMARK  219  A    between atoms: _542  and  _544
REMARK  220  A    between atoms: _544  and  _545
REMARK  221  A    between atoms: _544  and  _547
REMARK  222  A    between atoms: _547  and  _548
REMARK  223  A    between atoms: _550  and  _552
REMARK  224  A    between atoms: _552  and  _553
REMARK  225  A    between atoms: _555  and  _557
REMARK  226  A    between atoms: _557  and  _558
REMARK  227  A    between atoms: _557  and  _560
REMARK  228  A    between atoms: _560  and  _561
REMARK  229  A    between atoms: _564  and  _566
REMARK  230  A    between atoms: _566  and  _567
REMARK  231  A    between atoms: _569  and  _571
REMARK  232  A    between atoms: _571  and  _572
REMARK  233  A    between atoms: _571  and  _574
REMARK  234  A    between atoms: _574  and  _575
REMARK  235  A    between atoms: _580  and  _582
REMARK  236  A    between atoms: _582  and  _583
REMARK  237  A    between atoms: _582  and  _585
REMARK  238  A    between atoms: _585  and  _586
REMARK  239  A    between atoms: _586  and  _587
REMARK  240  A    between atoms: _594  and  _595
REMARK  241  A    between atoms: _595  and  _611
REMARK  242  A    between atoms: _596  and  _598
REMARK  243  A    between atoms: _598  and  _599
REMARK  244  A    between atoms: _599  and  _600
REMARK  245  A    between atoms: _604  and  _606
REMARK  246  A    between atoms: _606  and  _607
REMARK  247  A    between atoms: _606  and  _614
REMARK  248  A    between atoms: _607  and  _608
REMARK  249  A    between atoms: _608  and  _609
REMARK  250  A    between atoms: _609  and  _610
REMARK  251  A    between atoms: _610  and  _611
REMARK  252  A    between atoms: _616  and  _618
REMARK  253  A    between atoms: _618  and  _619
REMARK  254  A    between atoms: _618  and  _621
REMARK  255  A    between atoms: _621  and  _622
REMARK  256  A    between atoms: _625  and  _627
REMARK  257  A    between atoms: _627  and  _628
REMARK  258  A    between atoms: _630  and  _632
REMARK  259  A    between atoms: _632  and  _633
REMARK  260  A    between atoms: _636  and  _638
REMARK  261  A    between atoms: _638  and  _639
REMARK  262  A    between atoms: _638  and  _641
REMARK  263  A    between atoms: _641  and  _642
REMARK  264  A    between atoms: _647  and  _648
REMARK                            x       y       z     vdW  Elec       q    Type
REMARK                         _______ _______ _______ _____ _____    ______ ____
ROOT
ATOM      1  CA  HIS A   3      37.533  19.771  26.937  0.00  0.00    +0.155 C 
ENDROOT
BRANCH   1   3
ATOM      2  C   ASN A   2      39.092  17.860  26.902  0.00  0.00    +0.241 C 
ATOM      3  N   HIS A   3      38.755  19.068  27.365  0.00  0.00    -0.297 N 
ATOM      4  H   HIS A   3      39.381  19.530  28.055  0.00  0.00    +0.150 HD
ATOM      5  O   ASN A   2      38.486  17.289  25.990  0.00  0.00    -0.273 OA
BRANCH   2   6
ATOM      6  CA  ASN A   2      40.302  17.190  27.553  0.00  0.00    +0.158 C 
BRANCH   6   9
ATOM      7  C   THR A   1      39.590  15.379  29.059  0.00  0.00    +0.241 C 
ATOM      8  O   THR A   1      39.486  16.119  30.041  0.00  0.00    -0.274 OA
ATOM      9  N   ASN A   2      39.995  15.793  27.862  0.00  0.00    -0.297 N 
ATOM     10  H   ASN A   2      40.099  15.087  27.106  0.00  0.00    +0.150 HD
BRANCH   7  11
ATOM     11  CA  THR A   1      39.277  13.890  29.169  0.00  0.00    +0.172 C 
BRANCH  11  12
ATOM     12  N   THR A   1      40.115  13.314  30.208  0.00  0.00    -0.236 NA
ATOM     13  H   THR A   1      39.885  13.508  31.203  0.00  0.00    +0.142 HD
ENDBRANCH  11  12
BRANCH  11  14
ATOM     14  CB  THR A   1      37.770  13.680  29.460  0.00  0.00    +0.135 C 
ATOM     15  CG2 THR A   1      36.921  14.218  28.322  0.00  0.00    +0.034 C 
BRANCH  14  16
ATOM     16  OG1 THR A   1      37.499  12.283  29.621  0.00  0.00    -0.383 OA
ATOM     17  HG1 THR A   1      36.535  12.154  29.807  0.00  0.00    +0.210 HD
ENDBRANCH  14  16
ENDBRANCH  11  14
ENDBRANCH   7  11
ENDBRANCH   6   9
BRANCH   6  18
ATOM     18  CB  ASN A   2      41.530  17.255  26.630  0.00  0.00    +0.114 C 
BRANCH  18  19
ATOM     19  CG  ASN A   2      41.786  18.648  26.078  0.00  0.00    +0.222 C 
ATOM     20  ND2 ASN A   2      42.659  19.393  26.740  0.00  0.00    -0.329 N 
ATOM     21 HD21 ASN A   2      43.120  19.019  27.594  0.00  0.00    +0.145 HD
ATOM     22 HD22 ASN A   2      42.883  20.352  26.406  0.00  0.00    +0.145 HD
ATOM     23  OD1 ASN A   2      41.214  19.044  25.063  0.00  0.00    -0.275 OA
ENDBRANCH  18  19
ENDBRANCH   6  18
ENDBRANCH   2   6
ENDBRANCH   1   3
BRANCH   1  24
ATOM     24  C   HIS A   3      37.715  21.104  26.192  0.00  0.00    +0.241 C 
ATOM     25  N   THR A   4      38.951  21.516  25.920  0.00  0.00    -0.295 N 
ATOM     26  H   THR A   4      39.764  20.964  26.259  0.00  0.00    +0.150 HD
ATOM     27  O   HIS A   3      36.723  21.770  25.888  0.00  0.00    -0.273 OA
BRANCH  25  28
ATOM     28  CA  THR A   4      39.178  22.751  25.141  0.00  0.00    +0.176 C 
BRANCH  28  29
ATOM     29  C   THR A   4      40.607  22.910  24.642  0.00  0.00    +0.243 C 
ATOM     30  O   THR A   4      41.550  22.402  25.252  0.00  0.00    -0.273 OA
ATOM     31  N   VAL A   5      40.743  23.637  23.535  0.00  0.00    -0.297 N 
ATOM     32  H   VAL A   5      39.889  24.010  23.073  0.00  0.00    +0.150 HD
BRANCH  31  33
ATOM     33  CA  VAL A   5      42.046  23.931  22.944  0.00  0.00    +0.149 C 
BRANCH  33  34
ATOM     34  C   VAL A   5      42.448  25.390  23.176  0.00  0.00    +0.241 C 
ATOM     35  N   LEU A   6      41.531  26.183  23.728  0.00  0.00    -0.298 N 
ATOM     36  H   LEU A   6      40.606  25.785  23.988  0.00  0.00    +0.150 HD
ATOM     37  O   VAL A   5      43.569  25.782  22.859  0.00  0.00    -0.273 OA
BRANCH  35  38
ATOM     38  CA  LEU A   6      41.793  27.601  23.978  0.00  0.00    +0.137 C 
BRANCH  38  39
ATOM     39  C   LEU A   6      42.826  27.766  25.091  0.00  0.00    +0.227 C 
ATOM     40  O   LEU A   6      42.587  27.347  26.225  0.00  0.00    -0.286 OA
ENDBRANCH  38  39
BRANCH  38  41
ATOM     41  CB  LEU A   6      40.502  28.360  24.300  0.00  0.00    +0.028 C 
BRANCH  41  42
ATOM     42  CG  LEU A   6      39.440  28.448  23.196  0.00  0.00    +0.002 C 
ATOM     43  CD2 LEU A   6      38.280  29.314  23.651  0.00  0.00    +0.000 C 
ATOM     44  CD1 LEU A   6      40.021  28.991  21.892  0.00  0.00    +0.000 C 
ENDBRANCH  41  42
ENDBRANCH  38  41
ENDBRANCH  35  38
ENDBRANCH  33  34
BRANCH  33  45
ATOM     45  CB  VAL A   5      42.092  23.605  21.424  0.00  0.00    +0.027 C 
ATOM     46  CG2 VAL A   5      41.742  22.145  21.175  0.00  0.00    +0.002 C 
ATOM     47  CG1 VAL A   5      41.167  24.530  20.624  0.00  0.00    +0.002 C 
ENDBRANCH  33  45
ENDBRANCH  31  33
ENDBRANCH  28  29
BRANCH  28  48
ATOM     48  CB  THR A   4      38.750  24.043  25.903  0.00  0.00    +0.137 C 
ATOM     49  CG2 THR A   4      39.613  24.276  27.135  0.00  0.00    +0.034 C 
BRANCH  48  50
ATOM     50  OG1 THR A   4      38.853  25.176  25.028  0.00  0.00    -0.382 OA
ATOM     51  HG1 THR A   4      38.581  25.994  25.515  0.00  0.00    +0.210 HD
ENDBRANCH  48  50
ENDBRANCH  28  48
ENDBRANCH  25  28
ENDBRANCH   1  24
BRANCH   1  52
ATOM     52  CB  HIS A   3      36.618  20.036  28.135  0.00  0.00    +0.076 C 
BRANCH  52  53
ATOM     53  CG  HIS A   3      36.129  18.800  28.818  0.00  0.00    +0.082 A 
ATOM     54  CD2 HIS A   3      36.671  18.058  29.812  0.00  0.00    +0.115 A 
ATOM     55  NE2 HIS A   3      35.794  17.037  30.079  0.00  0.00    -0.221 NA
ATOM     56  CE1 HIS A   3      34.745  17.152  29.283  0.00  0.00    +0.199 A 
ATOM     57  ND1 HIS A   3      34.921  18.211  28.514  0.00  0.00    -0.227 NA
ENDBRANCH  52  53
ENDBRANCH   1  52
TORSDOF 23
REMARK  Name = ../refined-set-2016/2qrq/2qrq_pocket.pdb
REMARK  264 active torsions:
REMARK  status: ('A' for Active; 'I' for Inactive)
REMARK    1  A    between atoms: _1  and  _3
REMARK    2  A    between atoms: _3  and  _4
REMARK    3  A    between atoms: _3  and  _6
REMARK    4  A    between atoms: _6  and  _7
REMARK    5  A    between atoms: _12  and  _13
REMARK    6  A    between atoms: _15  and  _17
REMARK    7  A    between atoms: _17  and  _18
REMARK    8  A    between atoms: _17  and  _20
REMARK    9  A    between atoms: _20  and  _21
REMARK   10  A    between atoms: _24  and  _26
REMARK   11  A    between atoms: _26  and  _27
REMARK   12  A    between atoms: _26  and  _29
REMARK   13  A    between atoms: _29  and  _30
REMARK   14  A    between atoms: _30  and  _31
REMARK   15  A    between atoms: _34  and  _36
REMARK   16  A    between atoms: _36  and  _37
REMARK   17  A    between atoms: _39  and  _41
REMARK   18  A    between atoms: _41  and  _42
REMARK   19  A    between atoms: _41  and  _44
REMARK   20  A    between atoms: _44  and  _45
REMARK   21  A    between atoms: _50  and  _52
REMARK   22  A    between atoms: _52  and  _53
REMARK   23  A    between atoms: _55  and  _57
REMARK   24  A    between atoms: _57  and  _58
REMARK   25  A    between atoms: _60  and  _62
REMARK   26  A    between atoms: _62  and  _63
REMARK   27  A    between atoms: _62  and  _65
REMARK   28  A    between atoms: _65  and  _66
REMARK   29  A    between atoms: _69  and  _71
REMARK   30  A    between atoms: _71  and  _72
REMARK   31  A    between atoms: _74  and  _76
REMARK   32  A    between atoms: _76  and  _77
REMARK   33  A    between atoms: _76  and  _79
REMARK   34  A    between atoms: _79  and  _80
REMARK   35  A    between atoms: _80  and  _81
REMARK   36  A    between atoms: _81  and  _82
REMARK   37  A    between atoms: _91  and  _93
REMARK   38  A    between atoms: _93  and  _94
REMARK   39  A    between atoms: _93  and  _96
REMARK   40  A    between atoms: _96  and  _97
REMARK   41  A    between atoms: _100  and  _102
REMARK   42  A    between atoms: _102  and  _103
REMARK   43  A    between atoms: _106  and  _108
REMARK   44  A    between atoms: _108  and  _109
REMARK   45  A    between atoms: _108  and  _111
REMARK   46  A    between atoms: _111  and  _112
REMARK   47  A    between atoms: _118  and  _120
REMARK   48  A    between atoms: _120  and  _121
REMARK   49  A    between atoms: _120  and  _123
REMARK   50  A    between atoms: _123  and  _124
REMARK   51  A    between atoms: _127  and  _129
REMARK   52  A    between atoms: _129  and  _130
REMARK   53  A    between atoms: _129  and  _132
REMARK   54  A    between atoms: _132  and  _133
REMARK   55  A    between atoms: _138  and  _139
REMARK   56  A    between atoms: _142  and  _143
REMARK   57  A    between atoms: _148  and  _150
REMARK   58  A    between atoms: _150  and  _151
REMARK   59  A    between atoms: _150  and  _153
REMARK   60  A    between atoms: _153  and  _154
REMARK   61  A    between atoms: _159  and  _161
REMARK   62  A    between atoms: _161  and  _162
REMARK   63  A    between atoms: _161  and  _164
REMARK   64  A    between atoms: _164  and  _165
REMARK   65  A    between atoms: _168  and  _170
REMARK   66  A    between atoms: _170  and  _171
REMARK   67  A    between atoms: _170  and  _173
REMARK   68  A    between atoms: _173  and  _174
REMARK   69  A    between atoms: _179  and  _181
REMARK   70  A    between atoms: _181  and  _182
REMARK   71  A    between atoms: _181  and  _184
REMARK   72  A    between atoms: _184  and  _185
REMARK   73  A    between atoms: _191  and  _193
REMARK   74  A    between atoms: _193  and  _194
REMARK   75  A    between atoms: _193  and  _196
REMARK   76  A    between atoms: _196  and  _197
REMARK   77  A    between atoms: _203  and  _205
REMARK   78  A    between atoms: _205  and  _206
REMARK   79  A    between atoms: _205  and  _208
REMARK   80  A    between atoms: _208  and  _209
REMARK   81  A    between atoms: _209  and  _210
REMARK   82  A    between atoms: _213  and  _215
REMARK   83  A    between atoms: _215  and  _216
REMARK   84  A    between atoms: _215  and  _218
REMARK   85  A    between atoms: _218  and  _219
REMARK   86  A    between atoms: _219  and  _220
REMARK   87  A    between atoms: _220  and  _221
REMARK   88  A    between atoms: _230  and  _232
REMARK   89  A    between atoms: _232  and  _233
REMARK   90  A    between atoms: _232  and  _235
REMARK   91  A    between atoms: _235  and  _236
REMARK   92  A    between atoms: _236  and  _237
REMARK   93  A    between atoms: _240  and  _242
REMARK   94  A    between atoms: _242  and  _243
REMARK   95  A    between atoms: _242  and  _245
REMARK   96  A    between atoms: _245  and  _246
REMARK   97  A    between atoms: _251  and  _253
REMARK   98  A    between atoms: _253  and  _254
REMARK   99  A    between atoms: _253  and  _256
REMARK  100  A    between atoms: _256  and  _257
REMARK  101  A    between atoms: _260  and  _262
REMARK  102  A    between atoms: _262  and  _263
REMARK  103  A    between atoms: _262  and  _265
REMARK  104  A    between atoms: _265  and  _266
REMARK  105  A    between atoms: _269  and  _271
REMARK  106  A    between atoms: _271  and  _272
REMARK  107  A    between atoms: _271  and  _274
REMARK  108  A    between atoms: _274  and  _275
REMARK  109  A    between atoms: _280  and  _282
REMARK  110  A    between atoms: _282  and  _283
REMARK  111  A    between atoms: _282  and  _285
REMARK  112  A    between atoms: _285  and  _286
REMARK  113  A    between atoms: _289  and  _291
REMARK  114  A    between atoms: _291  and  _292
REMARK  115  A    between atoms: _291  and  _294
REMARK  116  A    between atoms: _294  and  _295
REMARK  117  A    between atoms: _300  and  _302
REMARK  118  A    between atoms: _302  and  _303
REMARK  119  A    between atoms: _302  and  _305
REMARK  120  A    between atoms: _305  and  _306
REMARK  121  A    between atoms: _311  and  _313
REMARK  122  A    between atoms: _313  and  _314
REMARK  123  A    between atoms: _313  and  _316
REMARK  124  A    between atoms: _316  and  _317
REMARK  125  A    between atoms: _320  and  _322
REMARK  126  A    between atoms: _322  and  _323
REMARK  127  A    between atoms: _322  and  _325
REMARK  128  A    between atoms: _328  and  _330
REMARK  129  A    between atoms: _330  and  _331
REMARK  130  A    between atoms: _330  and  _333
REMARK  131  A    between atoms: _333  and  _334
REMARK  132  A    between atoms: _337  and  _339
REMARK  133  A    between atoms: _339  and  _340
REMARK  134  A    between atoms: _343  and  _345
REMARK  135  A    between atoms: _345  and  _346
REMARK  136  A    between atoms: _345  and  _348
REMARK  137  A    between atoms: _348  and  _349
REMARK  138  A    between atoms: _352  and  _354
REMARK  139  A    between atoms: _354  and  _355
REMARK  140  A    between atoms: _354  and  _357
REMARK  141  A    between atoms: _357  and  _358
REMARK  142  A    between atoms: _358  and  _359
REMARK  143  A    between atoms: _362  and  _364
REMARK  144  A    between atoms: _364  and  _365
REMARK  145  A    between atoms: _364  and  _367
REMARK  146  A    between atoms: _367  and  _368
REMARK  147  A    between atoms: _373  and  _375
REMARK  148  A    between atoms: _375  and  _376
REMARK  149  A    between atoms: _378  and  _380
REMARK  150  A    between atoms: _380  and  _381
REMARK  151  A    between atoms: _380  and  _383
REMARK  152  A    between atoms: _386  and  _388
REMARK  153  A    between atoms: _388  and  _389
REMARK  154  A    between atoms: _392  and  _394
REMARK  155  A    between atoms: _394  and  _395
REMARK  156  A    between atoms: _394  and  _397
REMARK  157  A    between atoms: _397  and  _398
REMARK  158  A    between atoms: _403  and  _405
REMARK  159  A    between atoms: _405  and  _406
REMARK  160  A    between atoms: _405  and  _408
REMARK  161  A    between atoms: _408  and  _409
REMARK  162  A    between atoms: _409  and  _410
REMARK  163  A    between atoms: _410  and  _411
REMARK  164  A    between atoms: _411  and  _412
REMARK  165  A    between atoms: _416  and  _418
REMARK  166  A    between atoms: _418  and  _419
REMARK  167  A    between atoms: _418  and  _421
REMARK  168  A    between atoms: _421  and  _422
REMARK  169  A    between atoms: _425  and  _427
REMARK  170  A    between atoms: _427  and  _428
REMARK  171  A    between atoms: _427  and  _430
REMARK  172  A    between atoms: _430  and  _431
REMARK  173  A    between atoms: _436  and  _438
REMARK  174  A    between atoms: _438  and  _439
REMARK  175  A    between atoms: _441  and  _443
REMARK  176  A    between atoms: _443  and  _444
REMARK  177  A    between atoms: _443  and  _446
REMARK  178  A    between atoms: _446  and  _447
REMARK  179  A    between atoms: _447  and  _448
REMARK  180  A    between atoms: _448  and  _449
REMARK  181  A    between atoms: _449  and  _450
REMARK  182  A    between atoms: _454  and  _456
REMARK  183  A    between atoms: _456  and  _457
REMARK  184  A    between atoms: _456  and  _459
REMARK  185  A    between atoms: _459  and  _460
REMARK  186  A    between atoms: _460  and  _461
REMARK  187  A    between atoms: _461  and  _462
REMARK  188  A    between atoms: _471  and  _473
REMARK  189  A    between atoms: _473  and  _474
REMARK  190  A    between atoms: _473  and  _476
REMARK  191  A    between atoms: _476  and  _477
REMARK  192  A    between atoms: _482  and  _484
REMARK  193  A    between atoms: _484  and  _485
REMARK  194  A    between atoms: _484  and  _487
REMARK  195  A    between atoms: _487  and  _488
REMARK  196  A    between atoms: _493  and  _494
REMARK  197  A    between atoms: _496  and  _498
REMARK  198  A    between atoms: _498  and  _499
REMARK  199  A    between atoms: _498  and  _501
REMARK  200  A    between atoms: _501  and  _502
REMARK  201  A    between atoms: _502  and  _503
REMARK  202  A    between atoms: _503  and  _504
REMARK  203  A    between atoms: _504  and  _505
REMARK  204  A    between atoms: _509  and  _511
REMARK  205  A    between atoms: _511  and  _512
REMARK  206  A    between atoms: _511  and  _514
REMARK  207  A    between atoms: _514  and  _515
REMARK  208  A    between atoms: _517  and  _519
REMARK  209  A    between atoms: _519  and  _520
REMARK  210  A    between atoms: _519  and  _522
REMARK  211  A    between atoms: _522  and  _523
REMARK  212  A    between atoms: _526  and  _528
REMARK  213  A    between atoms: _528  and  _529
REMARK  214  A    between atoms: _528  and  _531
REMARK  215  A    between atoms: _531  and  _532
REMARK  216  A    between atoms: _532  and  _533
REMARK  217  A    between atoms: _536  and  _538
REMARK  218  A    between atoms: _538  and  _539
REMARK  219  A    between atoms: _542  and  _544
REMARK  220  A    between atoms: _544  and  _545
REMARK  221  A    between atoms: _544  and  _547
REMARK  222  A    between atoms: _547  and  _548
REMARK  223  A    between atoms: _550  and  _552
REMARK  224  A    between atoms: _552  and  _553
REMARK  225  A    between atoms: _555  and  _557
REMARK  226  A    between atoms: _557  and  _558
REMARK  227  A    between atoms: _557  and  _560
REMARK  228  A    between atoms: _560  and  _561
REMARK  229  A    between atoms: _564  and  _566
REMARK  230  A    between atoms: _566  and  _567
REMARK  231  A    between atoms: _569  and  _571
REMARK  232  A    between atoms: _571  and  _572
REMARK  233  A    between atoms: _571  and  _574
REMARK  234  A    between atoms: _574  and  _575
REMARK  235  A    between atoms: _580  and  _582
REMARK  236  A    between atoms: _582  and  _583
REMARK  237  A    between atoms: _582  and  _585
REMARK  238  A    between atoms: _585  and  _586
REMARK  239  A    between atoms: _586  and  _587
REMARK  240  A    between atoms: _594  and  _595
REMARK  241  A    between atoms: _595  and  _611
REMARK  242  A    between atoms: _596  and  _598
REMARK  243  A    between atoms: _598  and  _599
REMARK  244  A    between atoms: _599  and  _600
REMARK  245  A    between atoms: _604  and  _606
REMARK  246  A    between atoms: _606  and  _607
REMARK  247  A    between atoms: _606  and  _614
REMARK  248  A    between atoms: _607  and  _608
REMARK  249  A    between atoms: _608  and  _609
REMARK  250  A    between atoms: _609  and  _610
REMARK  251  A    between atoms: _610  and  _611
REMARK  252  A    between atoms: _616  and  _618
REMARK  253  A    between atoms: _618  and  _619
REMARK  254  A    between atoms: _618  and  _621
REMARK  255  A    between atoms: _621  and  _622
REMARK  256  A    between atoms: _625  and  _627
REMARK  257  A    between atoms: _627  and  _628
REMARK  258  A    between atoms: _630  and  _632
REMARK  259  A    between atoms: _632  and  _633
REMARK  260  A    between atoms: _636  and  _638
REMARK  261  A    between atoms: _638  and  _639
REMARK  262  A    between atoms: _638  and  _641
REMARK  263  A    between atoms: _641  and  _642
REMARK  264  A    between atoms: _647  and  _648
REMARK                            x       y       z     vdW  Elec       q    Type
REMARK                         _______ _______ _______ _____ _____    ______ ____
ROOT
ATOM      1  CA  LEU A   2      44.557  25.763  30.488  0.00  0.00    +0.149 C 
ENDROOT
BRANCH   1   4
ATOM      2  C   ALA A   1      42.465  27.038  30.455  0.00  0.00    +0.238 C 
ATOM      3  O   ALA A   1      42.008  26.438  31.437  0.00  0.00    -0.274 OA
ATOM      4  N   LEU A   2      43.682  26.811  29.965  0.00  0.00    -0.297 N 
ATOM      5  H   LEU A   2      44.023  27.402  29.180  0.00  0.00    +0.150 HD
BRANCH   2   6
ATOM      6  CA  ALA A   1      41.631  28.105  29.740  0.00  0.00    +0.145 C 
ATOM      7  CB  ALA A   1      40.505  27.455  28.954  0.00  0.00    +0.028 C 
BRANCH   6   8
ATOM      8  N   ALA A   1      42.434  28.959  28.860  0.00  0.00    -0.238 NA
ATOM      9  H   ALA A   1      42.563  28.672  27.869  0.00  0.00    +0.142 HD
ENDBRANCH   6   8
ENDBRANCH   2   6
ENDBRANCH   1   4
BRANCH   1  10
ATOM     10  C   LEU A   2      45.070  26.067  31.886  0.00  0.00    +0.241 C 
ATOM     11  N   GLU A   3      44.976  25.072  32.765  0.00  0.00    -0.298 N 
ATOM     12  H   GLU A   3      44.532  24.178  32.472  0.00  0.00    +0.150 HD
ATOM     13  O   LEU A   2      45.545  27.170  32.158  0.00  0.00    -0.273 OA
BRANCH  11  14
ATOM     14  CA  GLU A   3      45.477  25.200  34.126  0.00  0.00    +0.137 C 
BRANCH  14  15
ATOM     15  C   GLU A   3      46.985  25.052  34.158  0.00  0.00    +0.227 C 
ATOM     16  O   GLU A   3      47.518  23.985  33.850  0.00  0.00    -0.286 OA
ENDBRANCH  14  15
BRANCH  14  17
ATOM     17  CB  GLU A   3      44.845  24.153  35.038  0.00  0.00    +0.039 C 
BRANCH  17  18
ATOM     18  CG  GLU A   3      43.372  24.376  35.290  0.00  0.00    +0.116 C 
BRANCH  18  19
ATOM     19  CD  GLU A   3      42.868  23.548  36.439  0.00  0.00    +0.365 C 
ATOM     20  OE2 GLU A   3      42.353  24.153  37.400  0.00  0.00    -0.246 OA
ATOM     21  OE1 GLU A   3      42.995  22.302  36.382  0.00  0.00    -0.246 OA
ENDBRANCH  18  19
ENDBRANCH  17  18
ENDBRANCH  14  17
ENDBRANCH  11  14
ENDBRANCH   1  10
BRANCH   1  22
ATOM     22  CB  LEU A   2      45.745  25.530  29.550  0.00  0.00    +0.029 C 
BRANCH  22  23
ATOM     23  CG  LEU A   2      45.466  24.971  28.153  0.00  0.00    +0.002 C 
ATOM     24  CD2 LEU A   2      44.974  23.527  28.210  0.00  0.00    +0.000 C 
ATOM     25  CD1 LEU A   2      46.719  25.083  27.290  0.00  0.00    +0.000 C 
ENDBRANCH  22  23
ENDBRANCH   1  22
TORSDOF 11
REMARK  Name = ../refined-set-2016/2qrq/2qrq_pocket.pdb
REMARK  264 active torsions:
REMARK  status: ('A' for Active; 'I' for Inactive)
REMARK    1  A    between atoms: _1  and  _3
REMARK    2  A    between atoms: _3  and  _4
REMARK    3  A    between atoms: _3  and  _6
REMARK    4  A    between atoms: _6  and  _7
REMARK    5  A    between atoms: _12  and  _13
REMARK    6  A    between atoms: _15  and  _17
REMARK    7  A    between atoms: _17  and  _18
REMARK    8  A    between atoms: _17  and  _20
REMARK    9  A    between atoms: _20  and  _21
REMARK   10  A    between atoms: _24  and  _26
REMARK   11  A    between atoms: _26  and  _27
REMARK   12  A    between atoms: _26  and  _29
REMARK   13  A    between atoms: _29  and  _30
REMARK   14  A    between atoms: _30  and  _31
REMARK   15  A    between atoms: _34  and  _36
REMARK   16  A    between atoms: _36  and  _37
REMARK   17  A    between atoms: _39  and  _41
REMARK   18  A    between atoms: _41  and  _42
REMARK   19  A    between atoms: _41  and  _44
REMARK   20  A    between atoms: _44  and  _45
REMARK   21  A    between atoms: _50  and  _52
REMARK   22  A    between atoms: _52  and  _53
REMARK   23  A    between atoms: _55  and  _57
REMARK   24  A    between atoms: _57  and  _58
REMARK   25  A    between atoms: _60  and  _62
REMARK   26  A    between atoms: _62  and  _63
REMARK   27  A    between atoms: _62  and  _65
REMARK   28  A    between atoms: _65  and  _66
REMARK   29  A    between atoms: _69  and  _71
REMARK   30  A    between atoms: _71  and  _72
REMARK   31  A    between atoms: _74  and  _76
REMARK   32  A    between atoms: _76  and  _77
REMARK   33  A    between atoms: _76  and  _79
REMARK   34  A    between atoms: _79  and  _80
REMARK   35  A    between atoms: _80  and  _81
REMARK   36  A    between atoms: _81  and  _82
REMARK   37  A    between atoms: _91  and  _93
REMARK   38  A    between atoms: _93  and  _94
REMARK   39  A    between atoms: _93  and  _96
REMARK   40  A    between atoms: _96  and  _97
REMARK   41  A    between atoms: _100  and  _102
REMARK   42  A    between atoms: _102  and  _103
REMARK   43  A    between atoms: _106  and  _108
REMARK   44  A    between atoms: _108  and  _109
REMARK   45  A    between atoms: _108  and  _111
REMARK   46  A    between atoms: _111  and  _112
REMARK   47  A    between atoms: _118  and  _120
REMARK   48  A    between atoms: _120  and  _121
REMARK   49  A    between atoms: _120  and  _123
REMARK   50  A    between atoms: _123  and  _124
REMARK   51  A    between atoms: _127  and  _129
REMARK   52  A    between atoms: _129  and  _130
REMARK   53  A    between atoms: _129  and  _132
REMARK   54  A    between atoms: _132  and  _133
REMARK   55  A    between atoms: _138  and  _139
REMARK   56  A    between atoms: _142  and  _143
REMARK   57  A    between atoms: _148  and  _150
REMARK   58  A    between atoms: _150  and  _151
REMARK   59  A    between atoms: _150  and  _153
REMARK   60  A    between atoms: _153  and  _154
REMARK   61  A    between atoms: _159  and  _161
REMARK   62  A    between atoms: _161  and  _162
REMARK   63  A    between atoms: _161  and  _164
REMARK   64  A    between atoms: _164  and  _165
REMARK   65  A    between atoms: _168  and  _170
REMARK   66  A    between atoms: _170  and  _171
REMARK   67  A    between atoms: _170  and  _173
REMARK   68  A    between atoms: _173  and  _174
REMARK   69  A    between atoms: _179  and  _181
REMARK   70  A    between atoms: _181  and  _182
REMARK   71  A    between atoms: _181  and  _184
REMARK   72  A    between atoms: _184  and  _185
REMARK   73  A    between atoms: _191  and  _193
REMARK   74  A    between atoms: _193  and  _194
REMARK   75  A    between atoms: _193  and  _196
REMARK   76  A    between atoms: _196  and  _197
REMARK   77  A    between atoms: _203  and  _205
REMARK   78  A    between atoms: _205  and  _206
REMARK   79  A    between atoms: _205  and  _208
REMARK   80  A    between atoms: _208  and  _209
REMARK   81  A    between atoms: _209  and  _210
REMARK   82  A    between atoms: _213  and  _215
REMARK   83  A    between atoms: _215  and  _216
REMARK   84  A    between atoms: _215  and  _218
REMARK   85  A    between atoms: _218  and  _219
REMARK   86  A    between atoms: _219  and  _220
REMARK   87  A    between atoms: _220  and  _221
REMARK   88  A    between atoms: _230  and  _232
REMARK   89  A    between atoms: _232  and  _233
REMARK   90  A    between atoms: _232  and  _235
REMARK   91  A    between atoms: _235  and  _236
REMARK   92  A    between atoms: _236  and  _237
REMARK   93  A    between atoms: _240  and  _242
REMARK   94  A    between atoms: _242  and  _243
REMARK   95  A    between atoms: _242  and  _245
REMARK   96  A    between atoms: _245  and  _246
REMARK   97  A    between atoms: _251  and  _253
REMARK   98  A    between atoms: _253  and  _254
REMARK   99  A    between atoms: _253  and  _256
REMARK  100  A    between atoms: _256  and  _257
REMARK  101  A    between atoms: _260  and  _262
REMARK  102  A    between atoms: _262  and  _263
REMARK  103  A    between atoms: _262  and  _265
REMARK  104  A    between atoms: _265  and  _266
REMARK  105  A    between atoms: _269  and  _271
REMARK  106  A    between atoms: _271  and  _272
REMARK  107  A    between atoms: _271  and  _274
REMARK  108  A    between atoms: _274  and  _275
REMARK  109  A    between atoms: _280  and  _282
REMARK  110  A    between atoms: _282  and  _283
REMARK  111  A    between atoms: _282  and  _285
REMARK  112  A    between atoms: _285  and  _286
REMARK  113  A    between atoms: _289  and  _291
REMARK  114  A    between atoms: _291  and  _292
REMARK  115  A    between atoms: _291  and  _294
REMARK  116  A    between atoms: _294  and  _295
REMARK  117  A    between atoms: _300  and  _302
REMARK  118  A    between atoms: _302  and  _303
REMARK  119  A    between atoms: _302  and  _305
REMARK  120  A    between atoms: _305  and  _306
REMARK  121  A    between atoms: _311  and  _313
REMARK  122  A    between atoms: _313  and  _314
REMARK  123  A    between atoms: _313  and  _316
REMARK  124  A    between atoms: _316  and  _317
REMARK  125  A    between atoms: _320  and  _322
REMARK  126  A    between atoms: _322  and  _323
REMARK  127  A    between atoms: _322  and  _325
REMARK  128  A    between atoms: _328  and  _330
REMARK  129  A    between atoms: _330  and  _331
REMARK  130  A    between atoms: _330  and  _333
REMARK  131  A    between atoms: _333  and  _334
REMARK  132  A    between atoms: _337  and  _339
REMARK  133  A    between atoms: _339  and  _340
REMARK  134  A    between atoms: _343  and  _345
REMARK  135  A    between atoms: _345  and  _346
REMARK  136  A    between atoms: _345  and  _348
REMARK  137  A    between atoms: _348  and  _349
REMARK  138  A    between atoms: _352  and  _354
REMARK  139  A    between atoms: _354  and  _355
REMARK  140  A    between atoms: _354  and  _357
REMARK  141  A    between atoms: _357  and  _358
REMARK  142  A    between atoms: _358  and  _359
REMARK  143  A    between atoms: _362  and  _364
REMARK  144  A    between atoms: _364  and  _365
REMARK  145  A    between atoms: _364  and  _367
REMARK  146  A    between atoms: _367  and  _368
REMARK  147  A    between atoms: _373  and  _375
REMARK  148  A    between atoms: _375  and  _376
REMARK  149  A    between atoms: _378  and  _380
REMARK  150  A    between atoms: _380  and  _381
REMARK  151  A    between atoms: _380  and  _383
REMARK  152  A    between atoms: _386  and  _388
REMARK  153  A    between atoms: _388  and  _389
REMARK  154  A    between atoms: _392  and  _394
REMARK  155  A    between atoms: _394  and  _395
REMARK  156  A    between atoms: _394  and  _397
REMARK  157  A    between atoms: _397  and  _398
REMARK  158  A    between atoms: _403  and  _405
REMARK  159  A    between atoms: _405  and  _406
REMARK  160  A    between atoms: _405  and  _408
REMARK  161  A    between atoms: _408  and  _409
REMARK  162  A    between atoms: _409  and  _410
REMARK  163  A    between atoms: _410  and  _411
REMARK  164  A    between atoms: _411  and  _412
REMARK  165  A    between atoms: _416  and  _418
REMARK  166  A    between atoms: _418  and  _419
REMARK  167  A    between atoms: _418  and  _421
REMARK  168  A    between atoms: _421  and  _422
REMARK  169  A    between atoms: _425  and  _427
REMARK  170  A    between atoms: _427  and  _428
REMARK  171  A    between atoms: _427  and  _430
REMARK  172  A    between atoms: _430  and  _431
REMARK  173  A    between atoms: _436  and  _438
REMARK  174  A    between atoms: _438  and  _439
REMARK  175  A    between atoms: _441  and  _443
REMARK  176  A    between atoms: _443  and  _444
REMARK  177  A    between atoms: _443  and  _446
REMARK  178  A    between atoms: _446  and  _447
REMARK  179  A    between atoms: _447  and  _448
REMARK  180  A    between atoms: _448  and  _449
REMARK  181  A    between atoms: _449  and  _450
REMARK  182  A    between atoms: _454  and  _456
REMARK  183  A    between atoms: _456  and  _457
REMARK  184  A    between atoms: _456  and  _459
REMARK  185  A    between atoms: _459  and  _460
REMARK  186  A    between atoms: _460  and  _461
REMARK  187  A    between atoms: _461  and  _462
REMARK  188  A    between atoms: _471  and  _473
REMARK  189  A    between atoms: _473  and  _474
REMARK  190  A    between atoms: _473  and  _476
REMARK  191  A    between atoms: _476  and  _477
REMARK  192  A    between atoms: _482  and  _484
REMARK  193  A    between atoms: _484  and  _485
REMARK  194  A    between atoms: _484  and  _487
REMARK  195  A    between atoms: _487  and  _488
REMARK  196  A    between atoms: _493  and  _494
REMARK  197  A    between atoms: _496  and  _498
REMARK  198  A    between atoms: _498  and  _499
REMARK  199  A    between atoms: _498  and  _501
REMARK  200  A    between atoms: _501  and  _502
REMARK  201  A    between atoms: _502  and  _503
REMARK  202  A    between atoms: _503  and  _504
REMARK  203  A    between atoms: _504  and  _505
REMARK  204  A    between atoms: _509  and  _511
REMARK  205  A    between atoms: _511  and  _512
REMARK  206  A    between atoms: _511  and  _514
REMARK  207  A    between atoms: _514  and  _515
REMARK  208  A    between atoms: _517  and  _519
REMARK  209  A    between atoms: _519  and  _520
REMARK  210  A    between atoms: _519  and  _522
REMARK  211  A    between atoms: _522  and  _523
REMARK  212  A    between atoms: _526  and  _528
REMARK  213  A    between atoms: _528  and  _529
REMARK  214  A    between atoms: _528  and  _531
REMARK  215  A    between atoms: _531  and  _532
REMARK  216  A    between atoms: _532  and  _533
REMARK  217  A    between atoms: _536  and  _538
REMARK  218  A    between atoms: _538  and  _539
REMARK  219  A    between atoms: _542  and  _544
REMARK  220  A    between atoms: _544  and  _545
REMARK  221  A    between atoms: _544  and  _547
REMARK  222  A    between atoms: _547  and  _548
REMARK  223  A    between atoms: _550  and  _552
REMARK  224  A    between atoms: _552  and  _553
REMARK  225  A    between atoms: _555  and  _557
REMARK  226  A    between atoms: _557  and  _558
REMARK  227  A    between atoms: _557  and  _560
REMARK  228  A    between atoms: _560  and  _561
REMARK  229  A    between atoms: _564  and  _566
REMARK  230  A    between atoms: _566  and  _567
REMARK  231  A    between atoms: _569  and  _571
REMARK  232  A    between atoms: _571  and  _572
REMARK  233  A    between atoms: _571  and  _574
REMARK  234  A    between atoms: _574  and  _575
REMARK  235  A    between atoms: _580  and  _582
REMARK  236  A    between atoms: _582  and  _583
REMARK  237  A    between atoms: _582  and  _585
REMARK  238  A    between atoms: _585  and  _586
REMARK  239  A    between atoms: _586  and  _587
REMARK  240  A    between atoms: _594  and  _595
REMARK  241  A    between atoms: _595  and  _611
REMARK  242  A    between atoms: _596  and  _598
REMARK  243  A    between atoms: _598  and  _599
REMARK  244  A    between atoms: _599  and  _600
REMARK  245  A    between atoms: _604  and  _606
REMARK  246  A    between atoms: _606  and  _607
REMARK  247  A    between atoms: _606  and  _614
REMARK  248  A    between atoms: _607  and  _608
REMARK  249  A    between atoms: _608  and  _609
REMARK  250  A    between atoms: _609  and  _610
REMARK  251  A    between atoms: _610  and  _611
REMARK  252  A    between atoms: _616  and  _618
REMARK  253  A    between atoms: _618  and  _619
REMARK  254  A    between atoms: _618  and  _621
REMARK  255  A    between atoms: _621  and  _622
REMARK  256  A    between atoms: _625  and  _627
REMARK  257  A    between atoms: _627  and  _628
REMARK  258  A    between atoms: _630  and  _632
REMARK  259  A    between atoms: _632  and  _633
REMARK  260  A    between atoms: _636  and  _638
REMARK  261  A    between atoms: _638  and  _639
REMARK  262  A    between atoms: _638  and  _641
REMARK  263  A    between atoms: _641  and  _642
REMARK  264  A    between atoms: _647  and  _648
REMARK                            x       y       z     vdW  Elec       q    Type
REMARK                         _______ _______ _______ _____ _____    ______ ____
ROOT
ATOM      1  C   GLY A   2      37.354  14.411  23.151  0.00  0.00    +0.243 C 
ATOM      2  O   GLY A   2      36.963  13.248  23.301  0.00  0.00    -0.273 OA
ATOM      3  N   VAL A   3      36.526  15.431  22.948  0.00  0.00    -0.297 N 
ATOM      4  H   VAL A   3      36.910  16.341  22.621  0.00  0.00    +0.150 HD
ENDROOT
BRANCH   1   5
ATOM      5  CA  GLY A   2      38.836  14.735  23.170  0.00  0.00    +0.176 C 
BRANCH   5   8
ATOM      6  C   ASN A   1      39.848  13.146  24.717  0.00  0.00    +0.239 C 
ATOM      7  O   ASN A   1      39.765  13.899  25.687  0.00  0.00    -0.274 OA
ATOM      8  N   GLY A   2      39.577  13.521  23.470  0.00  0.00    -0.296 N 
ATOM      9  H   GLY A   2      39.906  12.926  22.683  0.00  0.00    +0.150 HD
BRANCH   6  10
ATOM     10  CA  ASN A   1      40.312  11.706  24.877  0.00  0.00    +0.154 C 
BRANCH  10  11
ATOM     11  N   ASN A   1      41.335  11.511  25.901  0.00  0.00    -0.238 NA
ATOM     12  H   ASN A   1      41.180  11.873  26.864  0.00  0.00    +0.142 HD
ENDBRANCH  10  11
BRANCH  10  13
ATOM     13  CB  ASN A   1      39.108  10.764  25.086  0.00  0.00    +0.111 C 
BRANCH  13  14
ATOM     14  CG  ASN A   1      38.179  11.221  26.205  0.00  0.00    +0.221 C 
ATOM     15  OD1 ASN A   1      38.468  11.038  27.383  0.00  0.00    -0.275 OA
ATOM     16  ND2 ASN A   1      37.048  11.804  25.831  0.00  0.00    -0.329 N 
ATOM     17 HD21 ASN A   1      36.367  12.126  26.548  0.00  0.00    +0.145 HD
ATOM     18 HD22 ASN A   1      36.842  11.940  24.821  0.00  0.00    +0.145 HD
ENDBRANCH  13  14
ENDBRANCH  10  13
ENDBRANCH   6  10
ENDBRANCH   5   8
ENDBRANCH   1   5
BRANCH   3  19
ATOM     19  CA  VAL A   3      35.082  15.301  23.175  0.00  0.00    +0.149 C 
BRANCH  19  20
ATOM     20  C   VAL A   3      34.227  15.387  21.901  0.00  0.00    +0.241 C 
ATOM     21  O   VAL A   3      32.998  15.411  21.969  0.00  0.00    -0.273 OA
ATOM     22  N   ALA A   4      34.896  15.432  20.749  0.00  0.00    -0.298 N 
ATOM     23  H   ALA A   4      35.930  15.535  20.787  0.00  0.00    +0.150 HD
BRANCH  22  24
ATOM     24  CA  ALA A   4      34.258  15.345  19.429  0.00  0.00    +0.137 C 
ATOM     25  CB  ALA A   4      33.574  16.664  19.048  0.00  0.00    +0.030 C 
BRANCH  24  26
ATOM     26  C   ALA A   4      35.344  14.988  18.423  0.00  0.00    +0.227 C 
ATOM     27  O   ALA A   4      36.527  15.262  18.663  0.00  0.00    -0.286 OA
ENDBRANCH  24  26
ENDBRANCH  22  24
ENDBRANCH  19  20
BRANCH  19  28
ATOM     28  CB  VAL A   3      34.585  16.298  24.258  0.00  0.00    +0.027 C 
ATOM     29  CG2 VAL A   3      35.146  15.919  25.626  0.00  0.00    +0.002 C 
ATOM     30  CG1 VAL A   3      34.964  17.732  23.902  0.00  0.00    +0.002 C 
ENDBRANCH  19  28
ENDBRANCH   3  19
TORSDOF 11
REMARK  Name = ../refined-set-2016/2qrq/2qrq_pocket.pdb
REMARK  264 active torsions:
REMARK  status: ('A' for Active; 'I' for Inactive)
REMARK    1  A    between atoms: _1  and  _3
REMARK    2  A    between atoms: _3  and  _4
REMARK    3  A    between atoms: _3  and  _6
REMARK    4  A    between atoms: _6  and  _7
REMARK    5  A    between atoms: _12  and  _13
REMARK    6  A    between atoms: _15  and  _17
REMARK    7  A    between atoms: _17  and  _18
REMARK    8  A    between atoms: _17  and  _20
REMARK    9  A    between atoms: _20  and  _21
REMARK   10  A    between atoms: _24  and  _26
REMARK   11  A    between atoms: _26  and  _27
REMARK   12  A    between atoms: _26  and  _29
REMARK   13  A    between atoms: _29  and  _30
REMARK   14  A    between atoms: _30  and  _31
REMARK   15  A    between atoms: _34  and  _36
REMARK   16  A    between atoms: _36  and  _37
REMARK   17  A    between atoms: _39  and  _41
REMARK   18  A    between atoms: _41  and  _42
REMARK   19  A    between atoms: _41  and  _44
REMARK   20  A    between atoms: _44  and  _45
REMARK   21  A    between atoms: _50  and  _52
REMARK   22  A    between atoms: _52  and  _53
REMARK   23  A    between atoms: _55  and  _57
REMARK   24  A    between atoms: _57  and  _58
REMARK   25  A    between atoms: _60  and  _62
REMARK   26  A    between atoms: _62  and  _63
REMARK   27  A    between atoms: _62  and  _65
REMARK   28  A    between atoms: _65  and  _66
REMARK   29  A    between atoms: _69  and  _71
REMARK   30  A    between atoms: _71  and  _72
REMARK   31  A    between atoms: _74  and  _76
REMARK   32  A    between atoms: _76  and  _77
REMARK   33  A    between atoms: _76  and  _79
REMARK   34  A    between atoms: _79  and  _80
REMARK   35  A    between atoms: _80  and  _81
REMARK   36  A    between atoms: _81  and  _82
REMARK   37  A    between atoms: _91  and  _93
REMARK   38  A    between atoms: _93  and  _94
REMARK   39  A    between atoms: _93  and  _96
REMARK   40  A    between atoms: _96  and  _97
REMARK   41  A    between atoms: _100  and  _102
REMARK   42  A    between atoms: _102  and  _103
REMARK   43  A    between atoms: _106  and  _108
REMARK   44  A    between atoms: _108  and  _109
REMARK   45  A    between atoms: _108  and  _111
REMARK   46  A    between atoms: _111  and  _112
REMARK   47  A    between atoms: _118  and  _120
REMARK   48  A    between atoms: _120  and  _121
REMARK   49  A    between atoms: _120  and  _123
REMARK   50  A    between atoms: _123  and  _124
REMARK   51  A    between atoms: _127  and  _129
REMARK   52  A    between atoms: _129  and  _130
REMARK   53  A    between atoms: _129  and  _132
REMARK   54  A    between atoms: _132  and  _133
REMARK   55  A    between atoms: _138  and  _139
REMARK   56  A    between atoms: _142  and  _143
REMARK   57  A    between atoms: _148  and  _150
REMARK   58  A    between atoms: _150  and  _151
REMARK   59  A    between atoms: _150  and  _153
REMARK   60  A    between atoms: _153  and  _154
REMARK   61  A    between atoms: _159  and  _161
REMARK   62  A    between atoms: _161  and  _162
REMARK   63  A    between atoms: _161  and  _164
REMARK   64  A    between atoms: _164  and  _165
REMARK   65  A    between atoms: _168  and  _170
REMARK   66  A    between atoms: _170  and  _171
REMARK   67  A    between atoms: _170  and  _173
REMARK   68  A    between atoms: _173  and  _174
REMARK   69  A    between atoms: _179  and  _181
REMARK   70  A    between atoms: _181  and  _182
REMARK   71  A    between atoms: _181  and  _184
REMARK   72  A    between atoms: _184  and  _185
REMARK   73  A    between atoms: _191  and  _193
REMARK   74  A    between atoms: _193  and  _194
REMARK   75  A    between atoms: _193  and  _196
REMARK   76  A    between atoms: _196  and  _197
REMARK   77  A    between atoms: _203  and  _205
REMARK   78  A    between atoms: _205  and  _206
REMARK   79  A    between atoms: _205  and  _208
REMARK   80  A    between atoms: _208  and  _209
REMARK   81  A    between atoms: _209  and  _210
REMARK   82  A    between atoms: _213  and  _215
REMARK   83  A    between atoms: _215  and  _216
REMARK   84  A    between atoms: _215  and  _218
REMARK   85  A    between atoms: _218  and  _219
REMARK   86  A    between atoms: _219  and  _220
REMARK   87  A    between atoms: _220  and  _221
REMARK   88  A    between atoms: _230  and  _232
REMARK   89  A    between atoms: _232  and  _233
REMARK   90  A    between atoms: _232  and  _235
REMARK   91  A    between atoms: _235  and  _236
REMARK   92  A    between atoms: _236  and  _237
REMARK   93  A    between atoms: _240  and  _242
REMARK   94  A    between atoms: _242  and  _243
REMARK   95  A    between atoms: _242  and  _245
REMARK   96  A    between atoms: _245  and  _246
REMARK   97  A    between atoms: _251  and  _253
REMARK   98  A    between atoms: _253  and  _254
REMARK   99  A    between atoms: _253  and  _256
REMARK  100  A    between atoms: _256  and  _257
REMARK  101  A    between atoms: _260  and  _262
REMARK  102  A    between atoms: _262  and  _263
REMARK  103  A    between atoms: _262  and  _265
REMARK  104  A    between atoms: _265  and  _266
REMARK  105  A    between atoms: _269  and  _271
REMARK  106  A    between atoms: _271  and  _272
REMARK  107  A    between atoms: _271  and  _274
REMARK  108  A    between atoms: _274  and  _275
REMARK  109  A    between atoms: _280  and  _282
REMARK  110  A    between atoms: _282  and  _283
REMARK  111  A    between atoms: _282  and  _285
REMARK  112  A    between atoms: _285  and  _286
REMARK  113  A    between atoms: _289  and  _291
REMARK  114  A    between atoms: _291  and  _292
REMARK  115  A    between atoms: _291  and  _294
REMARK  116  A    between atoms: _294  and  _295
REMARK  117  A    between atoms: _300  and  _302
REMARK  118  A    between atoms: _302  and  _303
REMARK  119  A    between atoms: _302  and  _305
REMARK  120  A    between atoms: _305  and  _306
REMARK  121  A    between atoms: _311  and  _313
REMARK  122  A    between atoms: _313  and  _314
REMARK  123  A    between atoms: _313  and  _316
REMARK  124  A    between atoms: _316  and  _317
REMARK  125  A    between atoms: _320  and  _322
REMARK  126  A    between atoms: _322  and  _323
REMARK  127  A    between atoms: _322  and  _325
REMARK  128  A    between atoms: _328  and  _330
REMARK  129  A    between atoms: _330  and  _331
REMARK  130  A    between atoms: _330  and  _333
REMARK  131  A    between atoms: _333  and  _334
REMARK  132  A    between atoms: _337  and  _339
REMARK  133  A    between atoms: _339  and  _340
REMARK  134  A    between atoms: _343  and  _345
REMARK  135  A    between atoms: _345  and  _346
REMARK  136  A    between atoms: _345  and  _348
REMARK  137  A    between atoms: _348  and  _349
REMARK  138  A    between atoms: _352  and  _354
REMARK  139  A    between atoms: _354  and  _355
REMARK  140  A    between atoms: _354  and  _357
REMARK  141  A    between atoms: _357  and  _358
REMARK  142  A    between atoms: _358  and  _359
REMARK  143  A    between atoms: _362  and  _364
REMARK  144  A    between atoms: _364  and  _365
REMARK  145  A    between atoms: _364  and  _367
REMARK  146  A    between atoms: _367  and  _368
REMARK  147  A    between atoms: _373  and  _375
REMARK  148  A    between atoms: _375  and  _376
REMARK  149  A    between atoms: _378  and  _380
REMARK  150  A    between atoms: _380  and  _381
REMARK  151  A    between atoms: _380  and  _383
REMARK  152  A    between atoms: _386  and  _388
REMARK  153  A    between atoms: _388  and  _389
REMARK  154  A    between atoms: _392  and  _394
REMARK  155  A    between atoms: _394  and  _395
REMARK  156  A    between atoms: _394  and  _397
REMARK  157  A    between atoms: _397  and  _398
REMARK  158  A    between atoms: _403  and  _405
REMARK  159  A    between atoms: _405  and  _406
REMARK  160  A    between atoms: _405  and  _408
REMARK  161  A    between atoms: _408  and  _409
REMARK  162  A    between atoms: _409  and  _410
REMARK  163  A    between atoms: _410  and  _411
REMARK  164  A    between atoms: _411  and  _412
REMARK  165  A    between atoms: _416  and  _418
REMARK  166  A    between atoms: _418  and  _419
REMARK  167  A    between atoms: _418  and  _421
REMARK  168  A    between atoms: _421  and  _422
REMARK  169  A    between atoms: _425  and  _427
REMARK  170  A    between atoms: _427  and  _428
REMARK  171  A    between atoms: _427  and  _430
REMARK  172  A    between atoms: _430  and  _431
REMARK  173  A    between atoms: _436  and  _438
REMARK  174  A    between atoms: _438  and  _439
REMARK  175  A    between atoms: _441  and  _443
REMARK  176  A    between atoms: _443  and  _444
REMARK  177  A    between atoms: _443  and  _446
REMARK  178  A    between atoms: _446  and  _447
REMARK  179  A    between atoms: _447  and  _448
REMARK  180  A    between atoms: _448  and  _449
REMARK  181  A    between atoms: _449  and  _450
REMARK  182  A    between atoms: _454  and  _456
REMARK  183  A    between atoms: _456  and  _457
REMARK  184  A    between atoms: _456  and  _459
REMARK  185  A    between atoms: _459  and  _460
REMARK  186  A    between atoms: _460  and  _461
REMARK  187  A    between atoms: _461  and  _462
REMARK  188  A    between atoms: _471  and  _473
REMARK  189  A    between atoms: _473  and  _474
REMARK  190  A    between atoms: _473  and  _476
REMARK  191  A    between atoms: _476  and  _477
REMARK  192  A    between atoms: _482  and  _484
REMARK  193  A    between atoms: _484  and  _485
REMARK  194  A    between atoms: _484  and  _487
REMARK  195  A    between atoms: _487  and  _488
REMARK  196  A    between atoms: _493  and  _494
REMARK  197  A    between atoms: _496  and  _498
REMARK  198  A    between atoms: _498  and  _499
REMARK  199  A    between atoms: _498  and  _501
REMARK  200  A    between atoms: _501  and  _502
REMARK  201  A    between atoms: _502  and  _503
REMARK  202  A    between atoms: _503  and  _504
REMARK  203  A    between atoms: _504  and  _505
REMARK  204  A    between atoms: _509  and  _511
REMARK  205  A    between atoms: _511  and  _512
REMARK  206  A    between atoms: _511  and  _514
REMARK  207  A    between atoms: _514  and  _515
REMARK  208  A    between atoms: _517  and  _519
REMARK  209  A    between atoms: _519  and  _520
REMARK  210  A    between atoms: _519  and  _522
REMARK  211  A    between atoms: _522  and  _523
REMARK  212  A    between atoms: _526  and  _528
REMARK  213  A    between atoms: _528  and  _529
REMARK  214  A    between atoms: _528  and  _531
REMARK  215  A    between atoms: _531  and  _532
REMARK  216  A    between atoms: _532  and  _533
REMARK  217  A    between atoms: _536  and  _538
REMARK  218  A    between atoms: _538  and  _539
REMARK  219  A    between atoms: _542  and  _544
REMARK  220  A    between atoms: _544  and  _545
REMARK  221  A    between atoms: _544  and  _547
REMARK  222  A    between atoms: _547  and  _548
REMARK  223  A    between atoms: _550  and  _552
REMARK  224  A    between atoms: _552  and  _553
REMARK  225  A    between atoms: _555  and  _557
REMARK  226  A    between atoms: _557  and  _558
REMARK  227  A    between atoms: _557  and  _560
REMARK  228  A    between atoms: _560  and  _561
REMARK  229  A    between atoms: _564  and  _566
REMARK  230  A    between atoms: _566  and  _567
REMARK  231  A    between atoms: _569  and  _571
REMARK  232  A    between atoms: _571  and  _572
REMARK  233  A    between atoms: _571  and  _574
REMARK  234  A    between atoms: _574  and  _575
REMARK  235  A    between atoms: _580  and  _582
REMARK  236  A    between atoms: _582  and  _583
REMARK  237  A    between atoms: _582  and  _585
REMARK  238  A    between atoms: _585  and  _586
REMARK  239  A    between atoms: _586  and  _587
REMARK  240  A    between atoms: _594  and  _595
REMARK  241  A    between atoms: _595  and  _611
REMARK  242  A    between atoms: _596  and  _598
REMARK  243  A    between atoms: _598  and  _599
REMARK  244  A    between atoms: _599  and  _600
REMARK  245  A    between atoms: _604  and  _606
REMARK  246  A    between atoms: _606  and  _607
REMARK  247  A    between atoms: _606  and  _614
REMARK  248  A    between atoms: _607  and  _608
REMARK  249  A    between atoms: _608  and  _609
REMARK  250  A    between atoms: _609  and  _610
REMARK  251  A    between atoms: _610  and  _611
REMARK  252  A    between atoms: _616  and  _618
REMARK  253  A    between atoms: _618  and  _619
REMARK  254  A    between atoms: _618  and  _621
REMARK  255  A    between atoms: _621  and  _622
REMARK  256  A    between atoms: _625  and  _627
REMARK  257  A    between atoms: _627  and  _628
REMARK  258  A    between atoms: _630  and  _632
REMARK  259  A    between atoms: _632  and  _633
REMARK  260  A    between atoms: _636  and  _638
REMARK  261  A    between atoms: _638  and  _639
REMARK  262  A    between atoms: _638  and  _641
REMARK  263  A    between atoms: _641  and  _642
REMARK  264  A    between atoms: _647  and  _648
REMARK                            x       y       z     vdW  Elec       q    Type
REMARK                         _______ _______ _______ _____ _____    ______ ____
ROOT
ATOM      1  CB  HIS A   1      37.638  18.304  19.758  0.00  0.00    +0.072 C 
ENDROOT
BRANCH   1   2
ATOM      2  CG  HIS A   1      38.341  18.552  21.056  0.00  0.00    +0.082 A 
ATOM      3  CD2 HIS A   1      38.316  17.867  22.223  0.00  0.00    +0.115 A 
ATOM      4  NE2 HIS A   1      39.141  18.526  23.100  0.00  0.00    -0.221 NA
ATOM      5  CE1 HIS A   1      39.643  19.590  22.499  0.00  0.00    +0.199 A 
ATOM      6  ND1 HIS A   1      39.171  19.633  21.265  0.00  0.00    -0.227 NA
ENDBRANCH   1   2
BRANCH   1   7
ATOM      7  CA  HIS A   1      38.577  18.055  18.563  0.00  0.00    +0.139 C 
BRANCH   7   8
ATOM      8  N   HIS A   1      37.788  17.644  17.403  0.00  0.00    -0.239 NA
ATOM      9  H   HIS A   1      36.796  17.373  17.555  0.00  0.00    +0.142 HD
ENDBRANCH   7   8
BRANCH   7  10
ATOM     10  C   HIS A   1      39.665  17.030  18.894  0.00  0.00    +0.224 C 
ATOM     11  O   HIS A   1      40.836  17.386  19.042  0.00  0.00    -0.287 OA
ENDBRANCH   7  10
ENDBRANCH   1   7
TORSDOF 4
REMARK  Name = ../refined-set-2016/2qrq/2qrq_pocket.pdb
REMARK  264 active torsions:
REMARK  status: ('A' for Active; 'I' for Inactive)
REMARK    1  A    between atoms: _1  and  _3
REMARK    2  A    between atoms: _3  and  _4
REMARK    3  A    between atoms: _3  and  _6
REMARK    4  A    between atoms: _6  and  _7
REMARK    5  A    between atoms: _12  and  _13
REMARK    6  A    between atoms: _15  and  _17
REMARK    7  A    between atoms: _17  and  _18
REMARK    8  A    between atoms: _17  and  _20
REMARK    9  A    between atoms: _20  and  _21
REMARK   10  A    between atoms: _24  and  _26
REMARK   11  A    between atoms: _26  and  _27
REMARK   12  A    between atoms: _26  and  _29
REMARK   13  A    between atoms: _29  and  _30
REMARK   14  A    between atoms: _30  and  _31
REMARK   15  A    between atoms: _34  and  _36
REMARK   16  A    between atoms: _36  and  _37
REMARK   17  A    between atoms: _39  and  _41
REMARK   18  A    between atoms: _41  and  _42
REMARK   19  A    between atoms: _41  and  _44
REMARK   20  A    between atoms: _44  and  _45
REMARK   21  A    between atoms: _50  and  _52
REMARK   22  A    between atoms: _52  and  _53
REMARK   23  A    between atoms: _55  and  _57
REMARK   24  A    between atoms: _57  and  _58
REMARK   25  A    between atoms: _60  and  _62
REMARK   26  A    between atoms: _62  and  _63
REMARK   27  A    between atoms: _62  and  _65
REMARK   28  A    between atoms: _65  and  _66
REMARK   29  A    between atoms: _69  and  _71
REMARK   30  A    between atoms: _71  and  _72
REMARK   31  A    between atoms: _74  and  _76
REMARK   32  A    between atoms: _76  and  _77
REMARK   33  A    between atoms: _76  and  _79
REMARK   34  A    between atoms: _79  and  _80
REMARK   35  A    between atoms: _80  and  _81
REMARK   36  A    between atoms: _81  and  _82
REMARK   37  A    between atoms: _91  and  _93
REMARK   38  A    between atoms: _93  and  _94
REMARK   39  A    between atoms: _93  and  _96
REMARK   40  A    between atoms: _96  and  _97
REMARK   41  A    between atoms: _100  and  _102
REMARK   42  A    between atoms: _102  and  _103
REMARK   43  A    between atoms: _106  and  _108
REMARK   44  A    between atoms: _108  and  _109
REMARK   45  A    between atoms: _108  and  _111
REMARK   46  A    between atoms: _111  and  _112
REMARK   47  A    between atoms: _118  and  _120
REMARK   48  A    between atoms: _120  and  _121
REMARK   49  A    between atoms: _120  and  _123
REMARK   50  A    between atoms: _123  and  _124
REMARK   51  A    between atoms: _127  and  _129
REMARK   52  A    between atoms: _129  and  _130
REMARK   53  A    between atoms: _129  and  _132
REMARK   54  A    between atoms: _132  and  _133
REMARK   55  A    between atoms: _138  and  _139
REMARK   56  A    between atoms: _142  and  _143
REMARK   57  A    between atoms: _148  and  _150
REMARK   58  A    between atoms: _150  and  _151
REMARK   59  A    between atoms: _150  and  _153
REMARK   60  A    between atoms: _153  and  _154
REMARK   61  A    between atoms: _159  and  _161
REMARK   62  A    between atoms: _161  and  _162
REMARK   63  A    between atoms: _161  and  _164
REMARK   64  A    between atoms: _164  and  _165
REMARK   65  A    between atoms: _168  and  _170
REMARK   66  A    between atoms: _170  and  _171
REMARK   67  A    between atoms: _170  and  _173
REMARK   68  A    between atoms: _173  and  _174
REMARK   69  A    between atoms: _179  and  _181
REMARK   70  A    between atoms: _181  and  _182
REMARK   71  A    between atoms: _181  and  _184
REMARK   72  A    between atoms: _184  and  _185
REMARK   73  A    between atoms: _191  and  _193
REMARK   74  A    between atoms: _193  and  _194
REMARK   75  A    between atoms: _193  and  _196
REMARK   76  A    between atoms: _196  and  _197
REMARK   77  A    between atoms: _203  and  _205
REMARK   78  A    between atoms: _205  and  _206
REMARK   79  A    between atoms: _205  and  _208
REMARK   80  A    between atoms: _208  and  _209
REMARK   81  A    between atoms: _209  and  _210
REMARK   82  A    between atoms: _213  and  _215
REMARK   83  A    between atoms: _215  and  _216
REMARK   84  A    between atoms: _215  and  _218
REMARK   85  A    between atoms: _218  and  _219
REMARK   86  A    between atoms: _219  and  _220
REMARK   87  A    between atoms: _220  and  _221
REMARK   88  A    between atoms: _230  and  _232
REMARK   89  A    between atoms: _232  and  _233
REMARK   90  A    between atoms: _232  and  _235
REMARK   91  A    between atoms: _235  and  _236
REMARK   92  A    between atoms: _236  and  _237
REMARK   93  A    between atoms: _240  and  _242
REMARK   94  A    between atoms: _242  and  _243
REMARK   95  A    between atoms: _242  and  _245
REMARK   96  A    between atoms: _245  and  _246
REMARK   97  A    between atoms: _251  and  _253
REMARK   98  A    between atoms: _253  and  _254
REMARK   99  A    between atoms: _253  and  _256
REMARK  100  A    between atoms: _256  and  _257
REMARK  101  A    between atoms: _260  and  _262
REMARK  102  A    between atoms: _262  and  _263
REMARK  103  A    between atoms: _262  and  _265
REMARK  104  A    between atoms: _265  and  _266
REMARK  105  A    between atoms: _269  and  _271
REMARK  106  A    between atoms: _271  and  _272
REMARK  107  A    between atoms: _271  and  _274
REMARK  108  A    between atoms: _274  and  _275
REMARK  109  A    between atoms: _280  and  _282
REMARK  110  A    between atoms: _282  and  _283
REMARK  111  A    between atoms: _282  and  _285
REMARK  112  A    between atoms: _285  and  _286
REMARK  113  A    between atoms: _289  and  _291
REMARK  114  A    between atoms: _291  and  _292
REMARK  115  A    between atoms: _291  and  _294
REMARK  116  A    between atoms: _294  and  _295
REMARK  117  A    between atoms: _300  and  _302
REMARK  118  A    between atoms: _302  and  _303
REMARK  119  A    between atoms: _302  and  _305
REMARK  120  A    between atoms: _305  and  _306
REMARK  121  A    between atoms: _311  and  _313
REMARK  122  A    between atoms: _313  and  _314
REMARK  123  A    between atoms: _313  and  _316
REMARK  124  A    between atoms: _316  and  _317
REMARK  125  A    between atoms: _320  and  _322
REMARK  126  A    between atoms: _322  and  _323
REMARK  127  A    between atoms: _322  and  _325
REMARK  128  A    between atoms: _328  and  _330
REMARK  129  A    between atoms: _330  and  _331
REMARK  130  A    between atoms: _330  and  _333
REMARK  131  A    between atoms: _333  and  _334
REMARK  132  A    between atoms: _337  and  _339
REMARK  133  A    between atoms: _339  and  _340
REMARK  134  A    between atoms: _343  and  _345
REMARK  135  A    between atoms: _345  and  _346
REMARK  136  A    between atoms: _345  and  _348
REMARK  137  A    between atoms: _348  and  _349
REMARK  138  A    between atoms: _352  and  _354
REMARK  139  A    between atoms: _354  and  _355
REMARK  140  A    between atoms: _354  and  _357
REMARK  141  A    between atoms: _357  and  _358
REMARK  142  A    between atoms: _358  and  _359
REMARK  143  A    between atoms: _362  and  _364
REMARK  144  A    between atoms: _364  and  _365
REMARK  145  A    between atoms: _364  and  _367
REMARK  146  A    between atoms: _367  and  _368
REMARK  147  A    between atoms: _373  and  _375
REMARK  148  A    between atoms: _375  and  _376
REMARK  149  A    between atoms: _378  and  _380
REMARK  150  A    between atoms: _380  and  _381
REMARK  151  A    between atoms: _380  and  _383
REMARK  152  A    between atoms: _386  and  _388
REMARK  153  A    between atoms: _388  and  _389
REMARK  154  A    between atoms: _392  and  _394
REMARK  155  A    between atoms: _394  and  _395
REMARK  156  A    between atoms: _394  and  _397
REMARK  157  A    between atoms: _397  and  _398
REMARK  158  A    between atoms: _403  and  _405
REMARK  159  A    between atoms: _405  and  _406
REMARK  160  A    between atoms: _405  and  _408
REMARK  161  A    between atoms: _408  and  _409
REMARK  162  A    between atoms: _409  and  _410
REMARK  163  A    between atoms: _410  and  _411
REMARK  164  A    between atoms: _411  and  _412
REMARK  165  A    between atoms: _416  and  _418
REMARK  166  A    between atoms: _418  and  _419
REMARK  167  A    between atoms: _418  and  _421
REMARK  168  A    between atoms: _421  and  _422
REMARK  169  A    between atoms: _425  and  _427
REMARK  170  A    between atoms: _427  and  _428
REMARK  171  A    between atoms: _427  and  _430
REMARK  172  A    between atoms: _430  and  _431
REMARK  173  A    between atoms: _436  and  _438
REMARK  174  A    between atoms: _438  and  _439
REMARK  175  A    between atoms: _441  and  _443
REMARK  176  A    between atoms: _443  and  _444
REMARK  177  A    between atoms: _443  and  _446
REMARK  178  A    between atoms: _446  and  _447
REMARK  179  A    between atoms: _447  and  _448
REMARK  180  A    between atoms: _448  and  _449
REMARK  181  A    between atoms: _449  and  _450
REMARK  182  A    between atoms: _454  and  _456
REMARK  183  A    between atoms: _456  and  _457
REMARK  184  A    between atoms: _456  and  _459
REMARK  185  A    between atoms: _459  and  _460
REMARK  186  A    between atoms: _460  and  _461
REMARK  187  A    between atoms: _461  and  _462
REMARK  188  A    between atoms: _471  and  _473
REMARK  189  A    between atoms: _473  and  _474
REMARK  190  A    between atoms: _473  and  _476
REMARK  191  A    between atoms: _476  and  _477
REMARK  192  A    between atoms: _482  and  _484
REMARK  193  A    between atoms: _484  and  _485
REMARK  194  A    between atoms: _484  and  _487
REMARK  195  A    between atoms: _487  and  _488
REMARK  196  A    between atoms: _493  and  _494
REMARK  197  A    between atoms: _496  and  _498
REMARK  198  A    between atoms: _498  and  _499
REMARK  199  A    between atoms: _498  and  _501
REMARK  200  A    between atoms: _501  and  _502
REMARK  201  A    between atoms: _502  and  _503
REMARK  202  A    between atoms: _503  and  _504
REMARK  203  A    between atoms: _504  and  _505
REMARK  204  A    between atoms: _509  and  _511
REMARK  205  A    between atoms: _511  and  _512
REMARK  206  A    between atoms: _511  and  _514
REMARK  207  A    between atoms: _514  and  _515
REMARK  208  A    between atoms: _517  and  _519
REMARK  209  A    between atoms: _519  and  _520
REMARK  210  A    between atoms: _519  and  _522
REMARK  211  A    between atoms: _522  and  _523
REMARK  212  A    between atoms: _526  and  _528
REMARK  213  A    between atoms: _528  and  _529
REMARK  214  A    between atoms: _528  and  _531
REMARK  215  A    between atoms: _531  and  _532
REMARK  216  A    between atoms: _532  and  _533
REMARK  217  A    between atoms: _536  and  _538
REMARK  218  A    between atoms: _538  and  _539
REMARK  219  A    between atoms: _542  and  _544
REMARK  220  A    between atoms: _544  and  _545
REMARK  221  A    between atoms: _544  and  _547
REMARK  222  A    between atoms: _547  and  _548
REMARK  223  A    between atoms: _550  and  _552
REMARK  224  A    between atoms: _552  and  _553
REMARK  225  A    between atoms: _555  and  _557
REMARK  226  A    between atoms: _557  and  _558
REMARK  227  A    between atoms: _557  and  _560
REMARK  228  A    between atoms: _560  and  _561
REMARK  229  A    between atoms: _564  and  _566
REMARK  230  A    between atoms: _566  and  _567
REMARK  231  A    between atoms: _569  and  _571
REMARK  232  A    between atoms: _571  and  _572
REMARK  233  A    between atoms: _571  and  _574
REMARK  234  A    between atoms: _574  and  _575
REMARK  235  A    between atoms: _580  and  _582
REMARK  236  A    between atoms: _582  and  _583
REMARK  237  A    between atoms: _582  and  _585
REMARK  238  A    between atoms: _585  and  _586
REMARK  239  A    between atoms: _586  and  _587
REMARK  240  A    between atoms: _594  and  _595
REMARK  241  A    between atoms: _595  and  _611
REMARK  242  A    between atoms: _596  and  _598
REMARK  243  A    between atoms: _598  and  _599
REMARK  244  A    between atoms: _599  and  _600
REMARK  245  A    between atoms: _604  and  _606
REMARK  246  A    between atoms: _606  and  _607
REMARK  247  A    between atoms: _606  and  _614
REMARK  248  A    between atoms: _607  and  _608
REMARK  249  A    between atoms: _608  and  _609
REMARK  250  A    between atoms: _609  and  _610
REMARK  251  A    between atoms: _610  and  _611
REMARK  252  A    between atoms: _616  and  _618
REMARK  253  A    between atoms: _618  and  _619
REMARK  254  A    between atoms: _618  and  _621
REMARK  255  A    between atoms: _621  and  _622
REMARK  256  A    between atoms: _625  and  _627
REMARK  257  A    between atoms: _627  and  _628
REMARK  258  A    between atoms: _630  and  _632
REMARK  259  A    between atoms: _632  and  _633
REMARK  260  A    between atoms: _636  and  _638
REMARK  261  A    between atoms: _638  and  _639
REMARK  262  A    between atoms: _638  and  _641
REMARK  263  A    between atoms: _641  and  _642
REMARK  264  A    between atoms: _647  and  _648
REMARK                            x       y       z     vdW  Elec       q    Type
REMARK                         _______ _______ _______ _____ _____    ______ ____
ROOT
ATOM      1  CA  THR A   2      32.109  12.314  21.069  0.00  0.00    +0.176 C 
ENDROOT
BRANCH   1   4
ATOM      2  C   LYS A   1      33.713  11.249  22.543  0.00  0.00    +0.238 C 
ATOM      3  O   LYS A   1      33.650  12.170  23.354  0.00  0.00    -0.274 OA
ATOM      4  N   THR A   2      33.014  11.225  21.411  0.00  0.00    -0.295 N 
ATOM      5  H   THR A   2      33.115  10.419  20.762  0.00  0.00    +0.150 HD
BRANCH   2   6
ATOM      6  CA  LYS A   1      34.643  10.078  22.779  0.00  0.00    +0.145 C 
BRANCH   6   7
ATOM      7  N   LYS A   1      35.932  10.448  22.218  0.00  0.00    -0.238 NA
ATOM      8  H   LYS A   1      36.288  11.413  22.371  0.00  0.00    +0.142 HD
ENDBRANCH   6   7
BRANCH   6   9
ATOM      9  CB  LYS A   1      34.746   9.765  24.275  0.00  0.00    +0.026 C 
BRANCH   9  10
ATOM     10  CG  LYS A   1      35.642   8.585  24.632  0.00  0.00    -0.000 C 
BRANCH  10  11
ATOM     11  CD  LYS A   1      35.065   7.269  24.138  0.00  0.00    -0.024 C 
BRANCH  11  12
ATOM     12  CE  LYS A   1      36.084   6.146  24.269  0.00  0.00    -0.086 C 
BRANCH  12  13
ATOM     13  NZ  LYS A   1      37.079   6.157  23.153  0.00  0.00    +0.380 N 
ATOM     14  HZ1 LYS A   1      37.753   5.376  23.283  0.00  0.00    -0.089 HD
ATOM     15  HZ2 LYS A   1      37.591   7.062  23.156  0.00  0.00    -0.089 HD
ATOM     16  HZ3 LYS A   1      36.583   6.041  22.246  0.00  0.00    -0.089 HD
ENDBRANCH  12  13
ENDBRANCH  11  12
ENDBRANCH  10  11
ENDBRANCH   9  10
ENDBRANCH   6   9
ENDBRANCH   2   6
ENDBRANCH   1   4
BRANCH   1  17
ATOM     17  C   THR A   2      31.054  12.437  22.158  0.00  0.00    +0.243 C 
ATOM     18  N   ASN A   3      30.836  13.671  22.605  0.00  0.00    -0.297 N 
ATOM     19  H   ASN A   3      31.361  14.460  22.176  0.00  0.00    +0.150 HD
ATOM     20  O   THR A   2      30.484  11.433  22.602  0.00  0.00    -0.273 OA
BRANCH  18  21
ATOM     21  CA  ASN A   3      29.888  13.958  23.675  0.00  0.00    +0.158 C 
BRANCH  21  22
ATOM     22  C   ASN A   3      28.480  13.487  23.336  0.00  0.00    +0.241 C 
ATOM     23  N   GLY A   4      27.646  13.443  24.362  0.00  0.00    -0.296 N 
ATOM     24  H   GLY A   4      28.006  13.671  25.311  0.00  0.00    +0.150 HD
ATOM     25  O   ASN A   3      28.163  13.173  22.185  0.00  0.00    -0.273 OA
BRANCH  23  26
ATOM     26  CA  GLY A   4      26.253  13.089  24.211  0.00  0.00    +0.163 C 
BRANCH  26  27
ATOM     27  C   GLY A   4      25.424  13.752  25.290  0.00  0.00    +0.229 C 
ATOM     28  O   GLY A   4      25.957  14.391  26.205  0.00  0.00    -0.286 OA
ENDBRANCH  26  27
ENDBRANCH  23  26
ENDBRANCH  21  22
BRANCH  21  29
ATOM     29  CB  ASN A   3      29.860  15.460  23.983  0.00  0.00    +0.114 C 
BRANCH  29  30
ATOM     30  CG  ASN A   3      31.009  15.912  24.876  0.00  0.00    +0.222 C 
ATOM     31  ND2 ASN A   3      31.709  14.969  25.481  0.00  0.00    -0.329 N 
ATOM     32 HD21 ASN A   3      32.496  15.228  26.110  0.00  0.00    +0.145 HD
ATOM     33 HD22 ASN A   3      31.473  13.968  25.328  0.00  0.00    +0.145 HD
ATOM     34  OD1 ASN A   3      31.247  17.113  25.023  0.00  0.00    -0.275 OA
ENDBRANCH  29  30
ENDBRANCH  21  29
ENDBRANCH  18  21
ENDBRANCH   1  17
BRANCH   1  35
ATOM     35  CB  THR A   2      31.477  12.121  19.673  0.00  0.00    +0.137 C 
ATOM     36  CG2 THR A   2      30.535  13.270  19.333  0.00  0.00    +0.034 C 
BRANCH  35  37
ATOM     37  OG1 THR A   2      32.520  12.083  18.695  0.00  0.00    -0.382 OA
ATOM     38  HG1 THR A   2      32.124  11.959  17.796  0.00  0.00    +0.210 HD
ENDBRANCH  35  37
ENDBRANCH   1  35
TORSDOF 17
REMARK  Name = ../refined-set-2016/2qrq/2qrq_pocket.pdb
REMARK  264 active torsions:
REMARK  status: ('A' for Active; 'I' for Inactive)
REMARK    1  A    between atoms: _1  and  _3
REMARK    2  A    between atoms: _3  and  _4
REMARK    3  A    between atoms: _3  and  _6
REMARK    4  A    between atoms: _6  and  _7
REMARK    5  A    between atoms: _12  and  _13
REMARK    6  A    between atoms: _15  and  _17
REMARK    7  A    between atoms: _17  and  _18
REMARK    8  A    between atoms: _17  and  _20
REMARK    9  A    between atoms: _20  and  _21
REMARK   10  A    between atoms: _24  and  _26
REMARK   11  A    between atoms: _26  and  _27
REMARK   12  A    between atoms: _26  and  _29
REMARK   13  A    between atoms: _29  and  _30
REMARK   14  A    between atoms: _30  and  _31
REMARK   15  A    between atoms: _34  and  _36
REMARK   16  A    between atoms: _36  and  _37
REMARK   17  A    between atoms: _39  and  _41
REMARK   18  A    between atoms: _41  and  _42
REMARK   19  A    between atoms: _41  and  _44
REMARK   20  A    between atoms: _44  and  _45
REMARK   21  A    between atoms: _50  and  _52
REMARK   22  A    between atoms: _52  and  _53
REMARK   23  A    between atoms: _55  and  _57
REMARK   24  A    between atoms: _57  and  _58
REMARK   25  A    between atoms: _60  and  _62
REMARK   26  A    between atoms: _62  and  _63
REMARK   27  A    between atoms: _62  and  _65
REMARK   28  A    between atoms: _65  and  _66
REMARK   29  A    between atoms: _69  and  _71
REMARK   30  A    between atoms: _71  and  _72
REMARK   31  A    between atoms: _74  and  _76
REMARK   32  A    between atoms: _76  and  _77
REMARK   33  A    between atoms: _76  and  _79
REMARK   34  A    between atoms: _79  and  _80
REMARK   35  A    between atoms: _80  and  _81
REMARK   36  A    between atoms: _81  and  _82
REMARK   37  A    between atoms: _91  and  _93
REMARK   38  A    between atoms: _93  and  _94
REMARK   39  A    between atoms: _93  and  _96
REMARK   40  A    between atoms: _96  and  _97
REMARK   41  A    between atoms: _100  and  _102
REMARK   42  A    between atoms: _102  and  _103
REMARK   43  A    between atoms: _106  and  _108
REMARK   44  A    between atoms: _108  and  _109
REMARK   45  A    between atoms: _108  and  _111
REMARK   46  A    between atoms: _111  and  _112
REMARK   47  A    between atoms: _118  and  _120
REMARK   48  A    between atoms: _120  and  _121
REMARK   49  A    between atoms: _120  and  _123
REMARK   50  A    between atoms: _123  and  _124
REMARK   51  A    between atoms: _127  and  _129
REMARK   52  A    between atoms: _129  and  _130
REMARK   53  A    between atoms: _129  and  _132
REMARK   54  A    between atoms: _132  and  _133
REMARK   55  A    between atoms: _138  and  _139
REMARK   56  A    between atoms: _142  and  _143
REMARK   57  A    between atoms: _148  and  _150
REMARK   58  A    between atoms: _150  and  _151
REMARK   59  A    between atoms: _150  and  _153
REMARK   60  A    between atoms: _153  and  _154
REMARK   61  A    between atoms: _159  and  _161
REMARK   62  A    between atoms: _161  and  _162
REMARK   63  A    between atoms: _161  and  _164
REMARK   64  A    between atoms: _164  and  _165
REMARK   65  A    between atoms: _168  and  _170
REMARK   66  A    between atoms: _170  and  _171
REMARK   67  A    between atoms: _170  and  _173
REMARK   68  A    between atoms: _173  and  _174
REMARK   69  A    between atoms: _179  and  _181
REMARK   70  A    between atoms: _181  and  _182
REMARK   71  A    between atoms: _181  and  _184
REMARK   72  A    between atoms: _184  and  _185
REMARK   73  A    between atoms: _191  and  _193
REMARK   74  A    between atoms: _193  and  _194
REMARK   75  A    between atoms: _193  and  _196
REMARK   76  A    between atoms: _196  and  _197
REMARK   77  A    between atoms: _203  and  _205
REMARK   78  A    between atoms: _205  and  _206
REMARK   79  A    between atoms: _205  and  _208
REMARK   80  A    between atoms: _208  and  _209
REMARK   81  A    between atoms: _209  and  _210
REMARK   82  A    between atoms: _213  and  _215
REMARK   83  A    between atoms: _215  and  _216
REMARK   84  A    between atoms: _215  and  _218
REMARK   85  A    between atoms: _218  and  _219
REMARK   86  A    between atoms: _219  and  _220
REMARK   87  A    between atoms: _220  and  _221
REMARK   88  A    between atoms: _230  and  _232
REMARK   89  A    between atoms: _232  and  _233
REMARK   90  A    between atoms: _232  and  _235
REMARK   91  A    between atoms: _235  and  _236
REMARK   92  A    between atoms: _236  and  _237
REMARK   93  A    between atoms: _240  and  _242
REMARK   94  A    between atoms: _242  and  _243
REMARK   95  A    between atoms: _242  and  _245
REMARK   96  A    between atoms: _245  and  _246
REMARK   97  A    between atoms: _251  and  _253
REMARK   98  A    between atoms: _253  and  _254
REMARK   99  A    between atoms: _253  and  _256
REMARK  100  A    between atoms: _256  and  _257
REMARK  101  A    between atoms: _260  and  _262
REMARK  102  A    between atoms: _262  and  _263
REMARK  103  A    between atoms: _262  and  _265
REMARK  104  A    between atoms: _265  and  _266
REMARK  105  A    between atoms: _269  and  _271
REMARK  106  A    between atoms: _271  and  _272
REMARK  107  A    between atoms: _271  and  _274
REMARK  108  A    between atoms: _274  and  _275
REMARK  109  A    between atoms: _280  and  _282
REMARK  110  A    between atoms: _282  and  _283
REMARK  111  A    between atoms: _282  and  _285
REMARK  112  A    between atoms: _285  and  _286
REMARK  113  A    between atoms: _289  and  _291
REMARK  114  A    between atoms: _291  and  _292
REMARK  115  A    between atoms: _291  and  _294
REMARK  116  A    between atoms: _294  and  _295
REMARK  117  A    between atoms: _300  and  _302
REMARK  118  A    between atoms: _302  and  _303
REMARK  119  A    between atoms: _302  and  _305
REMARK  120  A    between atoms: _305  and  _306
REMARK  121  A    between atoms: _311  and  _313
REMARK  122  A    between atoms: _313  and  _314
REMARK  123  A    between atoms: _313  and  _316
REMARK  124  A    between atoms: _316  and  _317
REMARK  125  A    between atoms: _320  and  _322
REMARK  126  A    between atoms: _322  and  _323
REMARK  127  A    between atoms: _322  and  _325
REMARK  128  A    between atoms: _328  and  _330
REMARK  129  A    between atoms: _330  and  _331
REMARK  130  A    between atoms: _330  and  _333
REMARK  131  A    between atoms: _333  and  _334
REMARK  132  A    between atoms: _337  and  _339
REMARK  133  A    between atoms: _339  and  _340
REMARK  134  A    between atoms: _343  and  _345
REMARK  135  A    between atoms: _345  and  _346
REMARK  136  A    between atoms: _345  and  _348
REMARK  137  A    between atoms: _348  and  _349
REMARK  138  A    between atoms: _352  and  _354
REMARK  139  A    between atoms: _354  and  _355
REMARK  140  A    between atoms: _354  and  _357
REMARK  141  A    between atoms: _357  and  _358
REMARK  142  A    between atoms: _358  and  _359
REMARK  143  A    between atoms: _362  and  _364
REMARK  144  A    between atoms: _364  and  _365
REMARK  145  A    between atoms: _364  and  _367
REMARK  146  A    between atoms: _367  and  _368
REMARK  147  A    between atoms: _373  and  _375
REMARK  148  A    between atoms: _375  and  _376
REMARK  149  A    between atoms: _378  and  _380
REMARK  150  A    between atoms: _380  and  _381
REMARK  151  A    between atoms: _380  and  _383
REMARK  152  A    between atoms: _386  and  _388
REMARK  153  A    between atoms: _388  and  _389
REMARK  154  A    between atoms: _392  and  _394
REMARK  155  A    between atoms: _394  and  _395
REMARK  156  A    between atoms: _394  and  _397
REMARK  157  A    between atoms: _397  and  _398
REMARK  158  A    between atoms: _403  and  _405
REMARK  159  A    between atoms: _405  and  _406
REMARK  160  A    between atoms: _405  and  _408
REMARK  161  A    between atoms: _408  and  _409
REMARK  162  A    between atoms: _409  and  _410
REMARK  163  A    between atoms: _410  and  _411
REMARK  164  A    between atoms: _411  and  _412
REMARK  165  A    between atoms: _416  and  _418
REMARK  166  A    between atoms: _418  and  _419
REMARK  167  A    between atoms: _418  and  _421
REMARK  168  A    between atoms: _421  and  _422
REMARK  169  A    between atoms: _425  and  _427
REMARK  170  A    between atoms: _427  and  _428
REMARK  171  A    between atoms: _427  and  _430
REMARK  172  A    between atoms: _430  and  _431
REMARK  173  A    between atoms: _436  and  _438
REMARK  174  A    between atoms: _438  and  _439
REMARK  175  A    between atoms: _441  and  _443
REMARK  176  A    between atoms: _443  and  _444
REMARK  177  A    between atoms: _443  and  _446
REMARK  178  A    between atoms: _446  and  _447
REMARK  179  A    between atoms: _447  and  _448
REMARK  180  A    between atoms: _448  and  _449
REMARK  181  A    between atoms: _449  and  _450
REMARK  182  A    between atoms: _454  and  _456
REMARK  183  A    between atoms: _456  and  _457
REMARK  184  A    between atoms: _456  and  _459
REMARK  185  A    between atoms: _459  and  _460
REMARK  186  A    between atoms: _460  and  _461
REMARK  187  A    between atoms: _461  and  _462
REMARK  188  A    between atoms: _471  and  _473
REMARK  189  A    between atoms: _473  and  _474
REMARK  190  A    between atoms: _473  and  _476
REMARK  191  A    between atoms: _476  and  _477
REMARK  192  A    between atoms: _482  and  _484
REMARK  193  A    between atoms: _484  and  _485
REMARK  194  A    between atoms: _484  and  _487
REMARK  195  A    between atoms: _487  and  _488
REMARK  196  A    between atoms: _493  and  _494
REMARK  197  A    between atoms: _496  and  _498
REMARK  198  A    between atoms: _498  and  _499
REMARK  199  A    between atoms: _498  and  _501
REMARK  200  A    between atoms: _501  and  _502
REMARK  201  A    between atoms: _502  and  _503
REMARK  202  A    between atoms: _503  and  _504
REMARK  203  A    between atoms: _504  and  _505
REMARK  204  A    between atoms: _509  and  _511
REMARK  205  A    between atoms: _511  and  _512
REMARK  206  A    between atoms: _511  and  _514
REMARK  207  A    between atoms: _514  and  _515
REMARK  208  A    between atoms: _517  and  _519
REMARK  209  A    between atoms: _519  and  _520
REMARK  210  A    between atoms: _519  and  _522
REMARK  211  A    between atoms: _522  and  _523
REMARK  212  A    between atoms: _526  and  _528
REMARK  213  A    between atoms: _528  and  _529
REMARK  214  A    between atoms: _528  and  _531
REMARK  215  A    between atoms: _531  and  _532
REMARK  216  A    between atoms: _532  and  _533
REMARK  217  A    between atoms: _536  and  _538
REMARK  218  A    between atoms: _538  and  _539
REMARK  219  A    between atoms: _542  and  _544
REMARK  220  A    between atoms: _544  and  _545
REMARK  221  A    between atoms: _544  and  _547
REMARK  222  A    between atoms: _547  and  _548
REMARK  223  A    between atoms: _550  and  _552
REMARK  224  A    between atoms: _552  and  _553
REMARK  225  A    between atoms: _555  and  _557
REMARK  226  A    between atoms: _557  and  _558
REMARK  227  A    between atoms: _557  and  _560
REMARK  228  A    between atoms: _560  and  _561
REMARK  229  A    between atoms: _564  and  _566
REMARK  230  A    between atoms: _566  and  _567
REMARK  231  A    between atoms: _569  and  _571
REMARK  232  A    between atoms: _571  and  _572
REMARK  233  A    between atoms: _571  and  _574
REMARK  234  A    between atoms: _574  and  _575
REMARK  235  A    between atoms: _580  and  _582
REMARK  236  A    between atoms: _582  and  _583
REMARK  237  A    between atoms: _582  and  _585
REMARK  238  A    between atoms: _585  and  _586
REMARK  239  A    between atoms: _586  and  _587
REMARK  240  A    between atoms: _594  and  _595
REMARK  241  A    between atoms: _595  and  _611
REMARK  242  A    between atoms: _596  and  _598
REMARK  243  A    between atoms: _598  and  _599
REMARK  244  A    between atoms: _599  and  _600
REMARK  245  A    between atoms: _604  and  _606
REMARK  246  A    between atoms: _606  and  _607
REMARK  247  A    between atoms: _606  and  _614
REMARK  248  A    between atoms: _607  and  _608
REMARK  249  A    between atoms: _608  and  _609
REMARK  250  A    between atoms: _609  and  _610
REMARK  251  A    between atoms: _610  and  _611
REMARK  252  A    between atoms: _616  and  _618
REMARK  253  A    between atoms: _618  and  _619
REMARK  254  A    between atoms: _618  and  _621
REMARK  255  A    between atoms: _621  and  _622
REMARK  256  A    between atoms: _625  and  _627
REMARK  257  A    between atoms: _627  and  _628
REMARK  258  A    between atoms: _630  and  _632
REMARK  259  A    between atoms: _632  and  _633
REMARK  260  A    between atoms: _636  and  _638
REMARK  261  A    between atoms: _638  and  _639
REMARK  262  A    between atoms: _638  and  _641
REMARK  263  A    between atoms: _641  and  _642
REMARK  264  A    between atoms: _647  and  _648
REMARK                            x       y       z     vdW  Elec       q    Type
REMARK                         _______ _______ _______ _____ _____    ______ ____
ROOT
ATOM      1  C   LYS A   1      25.631  30.204  26.736  0.00  0.00    +0.238 C 
ATOM      2  N   ARG A   2      26.695  29.873  27.461  0.00  0.00    -0.298 N 
ATOM      3  H   ARG A   2      26.985  28.876  27.518  0.00  0.00    +0.150 HD
ATOM      4  O   LYS A   1      25.204  31.356  26.658  0.00  0.00    -0.274 OA
ENDROOT
BRANCH   1   5
ATOM      5  CA  LYS A   1      24.937  29.086  25.982  0.00  0.00    +0.145 C 
BRANCH   5   6
ATOM      6  N   LYS A   1      23.603  29.587  25.662  0.00  0.00    -0.238 NA
ATOM      7  H   LYS A   1      23.306  30.484  26.097  0.00  0.00    +0.142 HD
ENDBRANCH   5   6
BRANCH   5   8
ATOM      8  CB  LYS A   1      25.742  28.731  24.715  0.00  0.00    +0.026 C 
BRANCH   8   9
ATOM      9  CG  LYS A   1      25.816  29.846  23.657  0.00  0.00    -0.000 C 
BRANCH   9  10
ATOM     10  CD  LYS A   1      26.448  29.377  22.346  0.00  0.00    -0.024 C 
BRANCH  10  11
ATOM     11  CE  LYS A   1      25.523  28.468  21.545  0.00  0.00    -0.086 C 
BRANCH  11  12
ATOM     12  NZ  LYS A   1      26.037  27.074  21.508  0.00  0.00    +0.380 N 
ATOM     13  HZ1 LYS A   1      26.106  26.705  22.478  0.00  0.00    -0.089 HD
ATOM     14  HZ2 LYS A   1      26.978  27.064  21.064  0.00  0.00    -0.089 HD
ATOM     15  HZ3 LYS A   1      25.386  26.480  20.956  0.00  0.00    -0.089 HD
ENDBRANCH  11  12
ENDBRANCH  10  11
ENDBRANCH   9  10
ENDBRANCH   8   9
ENDBRANCH   5   8
ENDBRANCH   1   5
BRANCH   2  16
ATOM     16  CA  ARG A   2      27.465  30.886  28.180  0.00  0.00    +0.137 C 
BRANCH  16  17
ATOM     17  C   ARG A   2      27.983  31.951  27.208  0.00  0.00    +0.227 C 
ATOM     18  O   ARG A   2      28.264  31.655  26.044  0.00  0.00    -0.286 OA
ENDBRANCH  16  17
BRANCH  16  19
ATOM     19  CB  ARG A   2      28.613  30.234  28.960  0.00  0.00    +0.031 C 
BRANCH  19  20
ATOM     20  CG  ARG A   2      28.168  29.355  30.135  0.00  0.00    +0.045 C 
BRANCH  20  21
ATOM     21  CD  ARG A   2      27.527  30.178  31.256  0.00  0.00    +0.174 C 
BRANCH  21  22
ATOM     22  NE  ARG A   2      28.489  31.101  31.855  0.00  0.00    -0.265 N 
ATOM     23  CZ  ARG A   2      29.163  30.872  32.978  0.00  0.00    +0.342 C 
ATOM     24  NH2 ARG A   2      28.980  29.747  33.661  0.00  0.00    -0.292 N 
ATOM     25 HH21 ARG A   2      29.513  29.579  34.538  0.00  0.00    +0.255 HD
ATOM     26 HH22 ARG A   2      28.304  29.035  33.318  0.00  0.00    +0.255 HD
ATOM     27  NH1 ARG A   2      30.026  31.779  33.422  0.00  0.00    -0.292 N 
ATOM     28 HH11 ARG A   2      30.556  31.606  34.300  0.00  0.00    +0.255 HD
ATOM     29 HH12 ARG A   2      30.171  32.662  32.892  0.00  0.00    +0.255 HD
ATOM     30  HE  ARG A   2      28.659  32.003  31.367  0.00  0.00    +0.259 HD
ENDBRANCH  21  22
ENDBRANCH  20  21
ENDBRANCH  19  20
ENDBRANCH  16  19
ENDBRANCH   2  16
TORSDOF 13
REMARK  Name = ../refined-set-2016/2qrq/2qrq_pocket.pdb
REMARK  264 active torsions:
REMARK  status: ('A' for Active; 'I' for Inactive)
REMARK    1  A    between atoms: _1  and  _3
REMARK    2  A    between atoms: _3  and  _4
REMARK    3  A    between atoms: _3  and  _6
REMARK    4  A    between atoms: _6  and  _7
REMARK    5  A    between atoms: _12  and  _13
REMARK    6  A    between atoms: _15  and  _17
REMARK    7  A    between atoms: _17  and  _18
REMARK    8  A    between atoms: _17  and  _20
REMARK    9  A    between atoms: _20  and  _21
REMARK   10  A    between atoms: _24  and  _26
REMARK   11  A    between atoms: _26  and  _27
REMARK   12  A    between atoms: _26  and  _29
REMARK   13  A    between atoms: _29  and  _30
REMARK   14  A    between atoms: _30  and  _31
REMARK   15  A    between atoms: _34  and  _36
REMARK   16  A    between atoms: _36  and  _37
REMARK   17  A    between atoms: _39  and  _41
REMARK   18  A    between atoms: _41  and  _42
REMARK   19  A    between atoms: _41  and  _44
REMARK   20  A    between atoms: _44  and  _45
REMARK   21  A    between atoms: _50  and  _52
REMARK   22  A    between atoms: _52  and  _53
REMARK   23  A    between atoms: _55  and  _57
REMARK   24  A    between atoms: _57  and  _58
REMARK   25  A    between atoms: _60  and  _62
REMARK   26  A    between atoms: _62  and  _63
REMARK   27  A    between atoms: _62  and  _65
REMARK   28  A    between atoms: _65  and  _66
REMARK   29  A    between atoms: _69  and  _71
REMARK   30  A    between atoms: _71  and  _72
REMARK   31  A    between atoms: _74  and  _76
REMARK   32  A    between atoms: _76  and  _77
REMARK   33  A    between atoms: _76  and  _79
REMARK   34  A    between atoms: _79  and  _80
REMARK   35  A    between atoms: _80  and  _81
REMARK   36  A    between atoms: _81  and  _82
REMARK   37  A    between atoms: _91  and  _93
REMARK   38  A    between atoms: _93  and  _94
REMARK   39  A    between atoms: _93  and  _96
REMARK   40  A    between atoms: _96  and  _97
REMARK   41  A    between atoms: _100  and  _102
REMARK   42  A    between atoms: _102  and  _103
REMARK   43  A    between atoms: _106  and  _108
REMARK   44  A    between atoms: _108  and  _109
REMARK   45  A    between atoms: _108  and  _111
REMARK   46  A    between atoms: _111  and  _112
REMARK   47  A    between atoms: _118  and  _120
REMARK   48  A    between atoms: _120  and  _121
REMARK   49  A    between atoms: _120  and  _123
REMARK   50  A    between atoms: _123  and  _124
REMARK   51  A    between atoms: _127  and  _129
REMARK   52  A    between atoms: _129  and  _130
REMARK   53  A    between atoms: _129  and  _132
REMARK   54  A    between atoms: _132  and  _133
REMARK   55  A    between atoms: _138  and  _139
REMARK   56  A    between atoms: _142  and  _143
REMARK   57  A    between atoms: _148  and  _150
REMARK   58  A    between atoms: _150  and  _151
REMARK   59  A    between atoms: _150  and  _153
REMARK   60  A    between atoms: _153  and  _154
REMARK   61  A    between atoms: _159  and  _161
REMARK   62  A    between atoms: _161  and  _162
REMARK   63  A    between atoms: _161  and  _164
REMARK   64  A    between atoms: _164  and  _165
REMARK   65  A    between atoms: _168  and  _170
REMARK   66  A    between atoms: _170  and  _171
REMARK   67  A    between atoms: _170  and  _173
REMARK   68  A    between atoms: _173  and  _174
REMARK   69  A    between atoms: _179  and  _181
REMARK   70  A    between atoms: _181  and  _182
REMARK   71  A    between atoms: _181  and  _184
REMARK   72  A    between atoms: _184  and  _185
REMARK   73  A    between atoms: _191  and  _193
REMARK   74  A    between atoms: _193  and  _194
REMARK   75  A    between atoms: _193  and  _196
REMARK   76  A    between atoms: _196  and  _197
REMARK   77  A    between atoms: _203  and  _205
REMARK   78  A    between atoms: _205  and  _206
REMARK   79  A    between atoms: _205  and  _208
REMARK   80  A    between atoms: _208  and  _209
REMARK   81  A    between atoms: _209  and  _210
REMARK   82  A    between atoms: _213  and  _215
REMARK   83  A    between atoms: _215  and  _216
REMARK   84  A    between atoms: _215  and  _218
REMARK   85  A    between atoms: _218  and  _219
REMARK   86  A    between atoms: _219  and  _220
REMARK   87  A    between atoms: _220  and  _221
REMARK   88  A    between atoms: _230  and  _232
REMARK   89  A    between atoms: _232  and  _233
REMARK   90  A    between atoms: _232  and  _235
REMARK   91  A    between atoms: _235  and  _236
REMARK   92  A    between atoms: _236  and  _237
REMARK   93  A    between atoms: _240  and  _242
REMARK   94  A    between atoms: _242  and  _243
REMARK   95  A    between atoms: _242  and  _245
REMARK   96  A    between atoms: _245  and  _246
REMARK   97  A    between atoms: _251  and  _253
REMARK   98  A    between atoms: _253  and  _254
REMARK   99  A    between atoms: _253  and  _256
REMARK  100  A    between atoms: _256  and  _257
REMARK  101  A    between atoms: _260  and  _262
REMARK  102  A    between atoms: _262  and  _263
REMARK  103  A    between atoms: _262  and  _265
REMARK  104  A    between atoms: _265  and  _266
REMARK  105  A    between atoms: _269  and  _271
REMARK  106  A    between atoms: _271  and  _272
REMARK  107  A    between atoms: _271  and  _274
REMARK  108  A    between atoms: _274  and  _275
REMARK  109  A    between atoms: _280  and  _282
REMARK  110  A    between atoms: _282  and  _283
REMARK  111  A    between atoms: _282  and  _285
REMARK  112  A    between atoms: _285  and  _286
REMARK  113  A    between atoms: _289  and  _291
REMARK  114  A    between atoms: _291  and  _292
REMARK  115  A    between atoms: _291  and  _294
REMARK  116  A    between atoms: _294  and  _295
REMARK  117  A    between atoms: _300  and  _302
REMARK  118  A    between atoms: _302  and  _303
REMARK  119  A    between atoms: _302  and  _305
REMARK  120  A    between atoms: _305  and  _306
REMARK  121  A    between atoms: _311  and  _313
REMARK  122  A    between atoms: _313  and  _314
REMARK  123  A    between atoms: _313  and  _316
REMARK  124  A    between atoms: _316  and  _317
REMARK  125  A    between atoms: _320  and  _322
REMARK  126  A    between atoms: _322  and  _323
REMARK  127  A    between atoms: _322  and  _325
REMARK  128  A    between atoms: _328  and  _330
REMARK  129  A    between atoms: _330  and  _331
REMARK  130  A    between atoms: _330  and  _333
REMARK  131  A    between atoms: _333  and  _334
REMARK  132  A    between atoms: _337  and  _339
REMARK  133  A    between atoms: _339  and  _340
REMARK  134  A    between atoms: _343  and  _345
REMARK  135  A    between atoms: _345  and  _346
REMARK  136  A    between atoms: _345  and  _348
REMARK  137  A    between atoms: _348  and  _349
REMARK  138  A    between atoms: _352  and  _354
REMARK  139  A    between atoms: _354  and  _355
REMARK  140  A    between atoms: _354  and  _357
REMARK  141  A    between atoms: _357  and  _358
REMARK  142  A    between atoms: _358  and  _359
REMARK  143  A    between atoms: _362  and  _364
REMARK  144  A    between atoms: _364  and  _365
REMARK  145  A    between atoms: _364  and  _367
REMARK  146  A    between atoms: _367  and  _368
REMARK  147  A    between atoms: _373  and  _375
REMARK  148  A    between atoms: _375  and  _376
REMARK  149  A    between atoms: _378  and  _380
REMARK  150  A    between atoms: _380  and  _381
REMARK  151  A    between atoms: _380  and  _383
REMARK  152  A    between atoms: _386  and  _388
REMARK  153  A    between atoms: _388  and  _389
REMARK  154  A    between atoms: _392  and  _394
REMARK  155  A    between atoms: _394  and  _395
REMARK  156  A    between atoms: _394  and  _397
REMARK  157  A    between atoms: _397  and  _398
REMARK  158  A    between atoms: _403  and  _405
REMARK  159  A    between atoms: _405  and  _406
REMARK  160  A    between atoms: _405  and  _408
REMARK  161  A    between atoms: _408  and  _409
REMARK  162  A    between atoms: _409  and  _410
REMARK  163  A    between atoms: _410  and  _411
REMARK  164  A    between atoms: _411  and  _412
REMARK  165  A    between atoms: _416  and  _418
REMARK  166  A    between atoms: _418  and  _419
REMARK  167  A    between atoms: _418  and  _421
REMARK  168  A    between atoms: _421  and  _422
REMARK  169  A    between atoms: _425  and  _427
REMARK  170  A    between atoms: _427  and  _428
REMARK  171  A    between atoms: _427  and  _430
REMARK  172  A    between atoms: _430  and  _431
REMARK  173  A    between atoms: _436  and  _438
REMARK  174  A    between atoms: _438  and  _439
REMARK  175  A    between atoms: _441  and  _443
REMARK  176  A    between atoms: _443  and  _444
REMARK  177  A    between atoms: _443  and  _446
REMARK  178  A    between atoms: _446  and  _447
REMARK  179  A    between atoms: _447  and  _448
REMARK  180  A    between atoms: _448  and  _449
REMARK  181  A    between atoms: _449  and  _450
REMARK  182  A    between atoms: _454  and  _456
REMARK  183  A    between atoms: _456  and  _457
REMARK  184  A    between atoms: _456  and  _459
REMARK  185  A    between atoms: _459  and  _460
REMARK  186  A    between atoms: _460  and  _461
REMARK  187  A    between atoms: _461  and  _462
REMARK  188  A    between atoms: _471  and  _473
REMARK  189  A    between atoms: _473  and  _474
REMARK  190  A    between atoms: _473  and  _476
REMARK  191  A    between atoms: _476  and  _477
REMARK  192  A    between atoms: _482  and  _484
REMARK  193  A    between atoms: _484  and  _485
REMARK  194  A    between atoms: _484  and  _487
REMARK  195  A    between atoms: _487  and  _488
REMARK  196  A    between atoms: _493  and  _494
REMARK  197  A    between atoms: _496  and  _498
REMARK  198  A    between atoms: _498  and  _499
REMARK  199  A    between atoms: _498  and  _501
REMARK  200  A    between atoms: _501  and  _502
REMARK  201  A    between atoms: _502  and  _503
REMARK  202  A    between atoms: _503  and  _504
REMARK  203  A    between atoms: _504  and  _505
REMARK  204  A    between atoms: _509  and  _511
REMARK  205  A    between atoms: _511  and  _512
REMARK  206  A    between atoms: _511  and  _514
REMARK  207  A    between atoms: _514  and  _515
REMARK  208  A    between atoms: _517  and  _519
REMARK  209  A    between atoms: _519  and  _520
REMARK  210  A    between atoms: _519  and  _522
REMARK  211  A    between atoms: _522  and  _523
REMARK  212  A    between atoms: _526  and  _528
REMARK  213  A    between atoms: _528  and  _529
REMARK  214  A    between atoms: _528  and  _531
REMARK  215  A    between atoms: _531  and  _532
REMARK  216  A    between atoms: _532  and  _533
REMARK  217  A    between atoms: _536  and  _538
REMARK  218  A    between atoms: _538  and  _539
REMARK  219  A    between atoms: _542  and  _544
REMARK  220  A    between atoms: _544  and  _545
REMARK  221  A    between atoms: _544  and  _547
REMARK  222  A    between atoms: _547  and  _548
REMARK  223  A    between atoms: _550  and  _552
REMARK  224  A    between atoms: _552  and  _553
REMARK  225  A    between atoms: _555  and  _557
REMARK  226  A    between atoms: _557  and  _558
REMARK  227  A    between atoms: _557  and  _560
REMARK  228  A    between atoms: _560  and  _561
REMARK  229  A    between atoms: _564  and  _566
REMARK  230  A    between atoms: _566  and  _567
REMARK  231  A    between atoms: _569  and  _571
REMARK  232  A    between atoms: _571  and  _572
REMARK  233  A    between atoms: _571  and  _574
REMARK  234  A    between atoms: _574  and  _575
REMARK  235  A    between atoms: _580  and  _582
REMARK  236  A    between atoms: _582  and  _583
REMARK  237  A    between atoms: _582  and  _585
REMARK  238  A    between atoms: _585  and  _586
REMARK  239  A    between atoms: _586  and  _587
REMARK  240  A    between atoms: _594  and  _595
REMARK  241  A    between atoms: _595  and  _611
REMARK  242  A    between atoms: _596  and  _598
REMARK  243  A    between atoms: _598  and  _599
REMARK  244  A    between atoms: _599  and  _600
REMARK  245  A    between atoms: _604  and  _606
REMARK  246  A    between atoms: _606  and  _607
REMARK  247  A    between atoms: _606  and  _614
REMARK  248  A    between atoms: _607  and  _608
REMARK  249  A    between atoms: _608  and  _609
REMARK  250  A    between atoms: _609  and  _610
REMARK  251  A    between atoms: _610  and  _611
REMARK  252  A    between atoms: _616  and  _618
REMARK  253  A    between atoms: _618  and  _619
REMARK  254  A    between atoms: _618  and  _621
REMARK  255  A    between atoms: _621  and  _622
REMARK  256  A    between atoms: _625  and  _627
REMARK  257  A    between atoms: _627  and  _628
REMARK  258  A    between atoms: _630  and  _632
REMARK  259  A    between atoms: _632  and  _633
REMARK  260  A    between atoms: _636  and  _638
REMARK  261  A    between atoms: _638  and  _639
REMARK  262  A    between atoms: _638  and  _641
REMARK  263  A    between atoms: _641  and  _642
REMARK  264  A    between atoms: _647  and  _648
REMARK                            x       y       z     vdW  Elec       q    Type
REMARK                         _______ _______ _______ _____ _____    ______ ____
ROOT
ATOM      1  CB  HIS A   1      32.459  32.557  25.101  0.00  0.00    +0.072 C 
ENDROOT
BRANCH   1   2
ATOM      2  CG  HIS A   1      32.343  31.781  26.373  0.00  0.00    +0.082 A 
ATOM      3  ND1 HIS A   1      33.431  31.481  27.161  0.00  0.00    -0.227 NA
ATOM      4  CE1 HIS A   1      33.033  30.778  28.208  0.00  0.00    +0.199 A 
ATOM      5  NE2 HIS A   1      31.726  30.614  28.126  0.00  0.00    -0.221 NA
ATOM      6  CD2 HIS A   1      31.271  31.223  26.982  0.00  0.00    +0.115 A 
ENDBRANCH   1   2
BRANCH   1   7
ATOM      7  CA  HIS A   1      31.920  33.988  25.181  0.00  0.00    +0.139 C 
BRANCH   7   8
ATOM      8  N   HIS A   1      30.492  33.989  25.493  0.00  0.00    -0.239 NA
ATOM      9  H   HIS A   1      29.821  33.715  24.747  0.00  0.00    +0.142 HD
ENDBRANCH   7   8
BRANCH   7  10
ATOM     10  C   HIS A   1      32.133  34.629  23.823  0.00  0.00    +0.224 C 
ATOM     11  O   HIS A   1      31.290  34.507  22.929  0.00  0.00    -0.287 OA
ENDBRANCH   7  10
ENDBRANCH   1   7
TORSDOF 4
REMARK  Name = ../refined-set-2016/2qrq/2qrq_pocket.pdb
REMARK  264 active torsions:
REMARK  status: ('A' for Active; 'I' for Inactive)
REMARK    1  A    between atoms: _1  and  _3
REMARK    2  A    between atoms: _3  and  _4
REMARK    3  A    between atoms: _3  and  _6
REMARK    4  A    between atoms: _6  and  _7
REMARK    5  A    between atoms: _12  and  _13
REMARK    6  A    between atoms: _15  and  _17
REMARK    7  A    between atoms: _17  and  _18
REMARK    8  A    between atoms: _17  and  _20
REMARK    9  A    between atoms: _20  and  _21
REMARK   10  A    between atoms: _24  and  _26
REMARK   11  A    between atoms: _26  and  _27
REMARK   12  A    between atoms: _26  and  _29
REMARK   13  A    between atoms: _29  and  _30
REMARK   14  A    between atoms: _30  and  _31
REMARK   15  A    between atoms: _34  and  _36
REMARK   16  A    between atoms: _36  and  _37
REMARK   17  A    between atoms: _39  and  _41
REMARK   18  A    between atoms: _41  and  _42
REMARK   19  A    between atoms: _41  and  _44
REMARK   20  A    between atoms: _44  and  _45
REMARK   21  A    between atoms: _50  and  _52
REMARK   22  A    between atoms: _52  and  _53
REMARK   23  A    between atoms: _55  and  _57
REMARK   24  A    between atoms: _57  and  _58
REMARK   25  A    between atoms: _60  and  _62
REMARK   26  A    between atoms: _62  and  _63
REMARK   27  A    between atoms: _62  and  _65
REMARK   28  A    between atoms: _65  and  _66
REMARK   29  A    between atoms: _69  and  _71
REMARK   30  A    between atoms: _71  and  _72
REMARK   31  A    between atoms: _74  and  _76
REMARK   32  A    between atoms: _76  and  _77
REMARK   33  A    between atoms: _76  and  _79
REMARK   34  A    between atoms: _79  and  _80
REMARK   35  A    between atoms: _80  and  _81
REMARK   36  A    between atoms: _81  and  _82
REMARK   37  A    between atoms: _91  and  _93
REMARK   38  A    between atoms: _93  and  _94
REMARK   39  A    between atoms: _93  and  _96
REMARK   40  A    between atoms: _96  and  _97
REMARK   41  A    between atoms: _100  and  _102
REMARK   42  A    between atoms: _102  and  _103
REMARK   43  A    between atoms: _106  and  _108
REMARK   44  A    between atoms: _108  and  _109
REMARK   45  A    between atoms: _108  and  _111
REMARK   46  A    between atoms: _111  and  _112
REMARK   47  A    between atoms: _118  and  _120
REMARK   48  A    between atoms: _120  and  _121
REMARK   49  A    between atoms: _120  and  _123
REMARK   50  A    between atoms: _123  and  _124
REMARK   51  A    between atoms: _127  and  _129
REMARK   52  A    between atoms: _129  and  _130
REMARK   53  A    between atoms: _129  and  _132
REMARK   54  A    between atoms: _132  and  _133
REMARK   55  A    between atoms: _138  and  _139
REMARK   56  A    between atoms: _142  and  _143
REMARK   57  A    between atoms: _148  and  _150
REMARK   58  A    between atoms: _150  and  _151
REMARK   59  A    between atoms: _150  and  _153
REMARK   60  A    between atoms: _153  and  _154
REMARK   61  A    between atoms: _159  and  _161
REMARK   62  A    between atoms: _161  and  _162
REMARK   63  A    between atoms: _161  and  _164
REMARK   64  A    between atoms: _164  and  _165
REMARK   65  A    between atoms: _168  and  _170
REMARK   66  A    between atoms: _170  and  _171
REMARK   67  A    between atoms: _170  and  _173
REMARK   68  A    between atoms: _173  and  _174
REMARK   69  A    between atoms: _179  and  _181
REMARK   70  A    between atoms: _181  and  _182
REMARK   71  A    between atoms: _181  and  _184
REMARK   72  A    between atoms: _184  and  _185
REMARK   73  A    between atoms: _191  and  _193
REMARK   74  A    between atoms: _193  and  _194
REMARK   75  A    between atoms: _193  and  _196
REMARK   76  A    between atoms: _196  and  _197
REMARK   77  A    between atoms: _203  and  _205
REMARK   78  A    between atoms: _205  and  _206
REMARK   79  A    between atoms: _205  and  _208
REMARK   80  A    between atoms: _208  and  _209
REMARK   81  A    between atoms: _209  and  _210
REMARK   82  A    between atoms: _213  and  _215
REMARK   83  A    between atoms: _215  and  _216
REMARK   84  A    between atoms: _215  and  _218
REMARK   85  A    between atoms: _218  and  _219
REMARK   86  A    between atoms: _219  and  _220
REMARK   87  A    between atoms: _220  and  _221
REMARK   88  A    between atoms: _230  and  _232
REMARK   89  A    between atoms: _232  and  _233
REMARK   90  A    between atoms: _232  and  _235
REMARK   91  A    between atoms: _235  and  _236
REMARK   92  A    between atoms: _236  and  _237
REMARK   93  A    between atoms: _240  and  _242
REMARK   94  A    between atoms: _242  and  _243
REMARK   95  A    between atoms: _242  and  _245
REMARK   96  A    between atoms: _245  and  _246
REMARK   97  A    between atoms: _251  and  _253
REMARK   98  A    between atoms: _253  and  _254
REMARK   99  A    between atoms: _253  and  _256
REMARK  100  A    between atoms: _256  and  _257
REMARK  101  A    between atoms: _260  and  _262
REMARK  102  A    between atoms: _262  and  _263
REMARK  103  A    between atoms: _262  and  _265
REMARK  104  A    between atoms: _265  and  _266
REMARK  105  A    between atoms: _269  and  _271
REMARK  106  A    between atoms: _271  and  _272
REMARK  107  A    between atoms: _271  and  _274
REMARK  108  A    between atoms: _274  and  _275
REMARK  109  A    between atoms: _280  and  _282
REMARK  110  A    between atoms: _282  and  _283
REMARK  111  A    between atoms: _282  and  _285
REMARK  112  A    between atoms: _285  and  _286
REMARK  113  A    between atoms: _289  and  _291
REMARK  114  A    between atoms: _291  and  _292
REMARK  115  A    between atoms: _291  and  _294
REMARK  116  A    between atoms: _294  and  _295
REMARK  117  A    between atoms: _300  and  _302
REMARK  118  A    between atoms: _302  and  _303
REMARK  119  A    between atoms: _302  and  _305
REMARK  120  A    between atoms: _305  and  _306
REMARK  121  A    between atoms: _311  and  _313
REMARK  122  A    between atoms: _313  and  _314
REMARK  123  A    between atoms: _313  and  _316
REMARK  124  A    between atoms: _316  and  _317
REMARK  125  A    between atoms: _320  and  _322
REMARK  126  A    between atoms: _322  and  _323
REMARK  127  A    between atoms: _322  and  _325
REMARK  128  A    between atoms: _328  and  _330
REMARK  129  A    between atoms: _330  and  _331
REMARK  130  A    between atoms: _330  and  _333
REMARK  131  A    between atoms: _333  and  _334
REMARK  132  A    between atoms: _337  and  _339
REMARK  133  A    between atoms: _339  and  _340
REMARK  134  A    between atoms: _343  and  _345
REMARK  135  A    between atoms: _345  and  _346
REMARK  136  A    between atoms: _345  and  _348
REMARK  137  A    between atoms: _348  and  _349
REMARK  138  A    between atoms: _352  and  _354
REMARK  139  A    between atoms: _354  and  _355
REMARK  140  A    between atoms: _354  and  _357
REMARK  141  A    between atoms: _357  and  _358
REMARK  142  A    between atoms: _358  and  _359
REMARK  143  A    between atoms: _362  and  _364
REMARK  144  A    between atoms: _364  and  _365
REMARK  145  A    between atoms: _364  and  _367
REMARK  146  A    between atoms: _367  and  _368
REMARK  147  A    between atoms: _373  and  _375
REMARK  148  A    between atoms: _375  and  _376
REMARK  149  A    between atoms: _378  and  _380
REMARK  150  A    between atoms: _380  and  _381
REMARK  151  A    between atoms: _380  and  _383
REMARK  152  A    between atoms: _386  and  _388
REMARK  153  A    between atoms: _388  and  _389
REMARK  154  A    between atoms: _392  and  _394
REMARK  155  A    between atoms: _394  and  _395
REMARK  156  A    between atoms: _394  and  _397
REMARK  157  A    between atoms: _397  and  _398
REMARK  158  A    between atoms: _403  and  _405
REMARK  159  A    between atoms: _405  and  _406
REMARK  160  A    between atoms: _405  and  _408
REMARK  161  A    between atoms: _408  and  _409
REMARK  162  A    between atoms: _409  and  _410
REMARK  163  A    between atoms: _410  and  _411
REMARK  164  A    between atoms: _411  and  _412
REMARK  165  A    between atoms: _416  and  _418
REMARK  166  A    between atoms: _418  and  _419
REMARK  167  A    between atoms: _418  and  _421
REMARK  168  A    between atoms: _421  and  _422
REMARK  169  A    between atoms: _425  and  _427
REMARK  170  A    between atoms: _427  and  _428
REMARK  171  A    between atoms: _427  and  _430
REMARK  172  A    between atoms: _430  and  _431
REMARK  173  A    between atoms: _436  and  _438
REMARK  174  A    between atoms: _438  and  _439
REMARK  175  A    between atoms: _441  and  _443
REMARK  176  A    between atoms: _443  and  _444
REMARK  177  A    between atoms: _443  and  _446
REMARK  178  A    between atoms: _446  and  _447
REMARK  179  A    between atoms: _447  and  _448
REMARK  180  A    between atoms: _448  and  _449
REMARK  181  A    between atoms: _449  and  _450
REMARK  182  A    between atoms: _454  and  _456
REMARK  183  A    between atoms: _456  and  _457
REMARK  184  A    between atoms: _456  and  _459
REMARK  185  A    between atoms: _459  and  _460
REMARK  186  A    between atoms: _460  and  _461
REMARK  187  A    between atoms: _461  and  _462
REMARK  188  A    between atoms: _471  and  _473
REMARK  189  A    between atoms: _473  and  _474
REMARK  190  A    between atoms: _473  and  _476
REMARK  191  A    between atoms: _476  and  _477
REMARK  192  A    between atoms: _482  and  _484
REMARK  193  A    between atoms: _484  and  _485
REMARK  194  A    between atoms: _484  and  _487
REMARK  195  A    between atoms: _487  and  _488
REMARK  196  A    between atoms: _493  and  _494
REMARK  197  A    between atoms: _496  and  _498
REMARK  198  A    between atoms: _498  and  _499
REMARK  199  A    between atoms: _498  and  _501
REMARK  200  A    between atoms: _501  and  _502
REMARK  201  A    between atoms: _502  and  _503
REMARK  202  A    between atoms: _503  and  _504
REMARK  203  A    between atoms: _504  and  _505
REMARK  204  A    between atoms: _509  and  _511
REMARK  205  A    between atoms: _511  and  _512
REMARK  206  A    between atoms: _511  and  _514
REMARK  207  A    between atoms: _514  and  _515
REMARK  208  A    between atoms: _517  and  _519
REMARK  209  A    between atoms: _519  and  _520
REMARK  210  A    between atoms: _519  and  _522
REMARK  211  A    between atoms: _522  and  _523
REMARK  212  A    between atoms: _526  and  _528
REMARK  213  A    between atoms: _528  and  _529
REMARK  214  A    between atoms: _528  and  _531
REMARK  215  A    between atoms: _531  and  _532
REMARK  216  A    between atoms: _532  and  _533
REMARK  217  A    between atoms: _536  and  _538
REMARK  218  A    between atoms: _538  and  _539
REMARK  219  A    between atoms: _542  and  _544
REMARK  220  A    between atoms: _544  and  _545
REMARK  221  A    between atoms: _544  and  _547
REMARK  222  A    between atoms: _547  and  _548
REMARK  223  A    between atoms: _550  and  _552
REMARK  224  A    between atoms: _552  and  _553
REMARK  225  A    between atoms: _555  and  _557
REMARK  226  A    between atoms: _557  and  _558
REMARK  227  A    between atoms: _557  and  _560
REMARK  228  A    between atoms: _560  and  _561
REMARK  229  A    between atoms: _564  and  _566
REMARK  230  A    between atoms: _566  and  _567
REMARK  231  A    between atoms: _569  and  _571
REMARK  232  A    between atoms: _571  and  _572
REMARK  233  A    between atoms: _571  and  _574
REMARK  234  A    between atoms: _574  and  _575
REMARK  235  A    between atoms: _580  and  _582
REMARK  236  A    between atoms: _582  and  _583
REMARK  237  A    between atoms: _582  and  _585
REMARK  238  A    between atoms: _585  and  _586
REMARK  239  A    between atoms: _586  and  _587
REMARK  240  A    between atoms: _594  and  _595
REMARK  241  A    between atoms: _595  and  _611
REMARK  242  A    between atoms: _596  and  _598
REMARK  243  A    between atoms: _598  and  _599
REMARK  244  A    between atoms: _599  and  _600
REMARK  245  A    between atoms: _604  and  _606
REMARK  246  A    between atoms: _606  and  _607
REMARK  247  A    between atoms: _606  and  _614
REMARK  248  A    between atoms: _607  and  _608
REMARK  249  A    between atoms: _608  and  _609
REMARK  250  A    between atoms: _609  and  _610
REMARK  251  A    between atoms: _610  and  _611
REMARK  252  A    between atoms: _616  and  _618
REMARK  253  A    between atoms: _618  and  _619
REMARK  254  A    between atoms: _618  and  _621
REMARK  255  A    between atoms: _621  and  _622
REMARK  256  A    between atoms: _625  and  _627
REMARK  257  A    between atoms: _627  and  _628
REMARK  258  A    between atoms: _630  and  _632
REMARK  259  A    between atoms: _632  and  _633
REMARK  260  A    between atoms: _636  and  _638
REMARK  261  A    between atoms: _638  and  _639
REMARK  262  A    between atoms: _638  and  _641
REMARK  263  A    between atoms: _641  and  _642
REMARK  264  A    between atoms: _647  and  _648
REMARK                            x       y       z     vdW  Elec       q    Type
REMARK                         _______ _______ _______ _____ _____    ______ ____
ROOT
ATOM      1  C   TYR A   1      33.030  31.863  20.204  0.00  0.00    +0.239 C 
ATOM      2  N   LYS A   2      32.015  31.929  21.064  0.00  0.00    -0.298 N 
ATOM      3  H   LYS A   2      32.177  32.337  22.007  0.00  0.00    +0.150 HD
ATOM      4  O   TYR A   1      32.929  31.387  19.078  0.00  0.00    -0.274 OA
ENDROOT
BRANCH   1   5
ATOM      5  CA  TYR A   1      34.365  32.418  20.680  0.00  0.00    +0.149 C 
BRANCH   5   6
ATOM      6  N   TYR A   1      34.227  33.502  21.658  0.00  0.00    -0.238 NA
ATOM      7  H   TYR A   1      34.550  33.366  22.637  0.00  0.00    +0.142 HD
ENDBRANCH   5   6
BRANCH   5   8
ATOM      8  CB  TYR A   1      35.307  31.308  21.161  0.00  0.00    +0.053 C 
BRANCH   8   9
ATOM      9  CG  TYR A   1      34.706  30.211  22.013  0.00  0.00    -0.020 A 
ATOM     10  CD2 TYR A   1      34.799  30.254  23.402  0.00  0.00    -0.001 A 
ATOM     11  CE2 TYR A   1      34.273  29.230  24.192  0.00  0.00    +0.036 A 
ATOM     12  CZ  TYR A   1      33.659  28.142  23.582  0.00  0.00    +0.134 A 
ATOM     13  CE1 TYR A   1      33.569  28.071  22.201  0.00  0.00    +0.036 A 
ATOM     14  CD1 TYR A   1      34.097  29.097  21.426  0.00  0.00    -0.001 A 
BRANCH  12  15
ATOM     15  OH  TYR A   1      33.144  27.118  24.350  0.00  0.00    -0.506 OA
ATOM     16  HH  TYR A   1      32.747  26.431  23.758  0.00  0.00    +0.292 HD
ENDBRANCH  12  15
ENDBRANCH   8   9
ENDBRANCH   5   8
ENDBRANCH   1   5
BRANCH   2  17
ATOM     17  CA  LYS A   2      30.671  31.441  20.717  0.00  0.00    +0.137 C 
BRANCH  17  18
ATOM     18  C   LYS A   2      29.924  32.424  19.811  0.00  0.00    +0.227 C 
ATOM     19  O   LYS A   2      28.887  32.090  19.227  0.00  0.00    -0.286 OA
ENDBRANCH  17  18
BRANCH  17  20
ATOM     20  CB  LYS A   2      29.865  31.159  21.984  0.00  0.00    +0.028 C 
BRANCH  20  21
ATOM     21  CG  LYS A   2      30.324  29.921  22.739  0.00  0.00    -0.000 C 
BRANCH  21  22
ATOM     22  CD  LYS A   2      29.590  29.805  24.065  0.00  0.00    -0.024 C 
BRANCH  22  23
ATOM     23  CE  LYS A   2      30.128  28.682  24.940  0.00  0.00    -0.086 C 
BRANCH  23  24
ATOM     24  NZ  LYS A   2      29.728  27.318  24.458  0.00  0.00    +0.380 N 
ATOM     25  HZ1 LYS A   2      30.124  26.597  25.094  0.00  0.00    -0.089 HD
ATOM     26  HZ2 LYS A   2      28.691  27.244  24.452  0.00  0.00    -0.089 HD
ATOM     27  HZ3 LYS A   2      30.093  27.171  23.495  0.00  0.00    -0.089 HD
ENDBRANCH  23  24
ENDBRANCH  22  23
ENDBRANCH  21  22
ENDBRANCH  20  21
ENDBRANCH  17  20
ENDBRANCH   2  17
TORSDOF 12
REMARK  Name = ../refined-set-2016/2qrq/2qrq_pocket.pdb
REMARK  264 active torsions:
REMARK  status: ('A' for Active; 'I' for Inactive)
REMARK    1  A    between atoms: _1  and  _3
REMARK    2  A    between atoms: _3  and  _4
REMARK    3  A    between atoms: _3  and  _6
REMARK    4  A    between atoms: _6  and  _7
REMARK    5  A    between atoms: _12  and  _13
REMARK    6  A    between atoms: _15  and  _17
REMARK    7  A    between atoms: _17  and  _18
REMARK    8  A    between atoms: _17  and  _20
REMARK    9  A    between atoms: _20  and  _21
REMARK   10  A    between atoms: _24  and  _26
REMARK   11  A    between atoms: _26  and  _27
REMARK   12  A    between atoms: _26  and  _29
REMARK   13  A    between atoms: _29  and  _30
REMARK   14  A    between atoms: _30  and  _31
REMARK   15  A    between atoms: _34  and  _36
REMARK   16  A    between atoms: _36  and  _37
REMARK   17  A    between atoms: _39  and  _41
REMARK   18  A    between atoms: _41  and  _42
REMARK   19  A    between atoms: _41  and  _44
REMARK   20  A    between atoms: _44  and  _45
REMARK   21  A    between atoms: _50  and  _52
REMARK   22  A    between atoms: _52  and  _53
REMARK   23  A    between atoms: _55  and  _57
REMARK   24  A    between atoms: _57  and  _58
REMARK   25  A    between atoms: _60  and  _62
REMARK   26  A    between atoms: _62  and  _63
REMARK   27  A    between atoms: _62  and  _65
REMARK   28  A    between atoms: _65  and  _66
REMARK   29  A    between atoms: _69  and  _71
REMARK   30  A    between atoms: _71  and  _72
REMARK   31  A    between atoms: _74  and  _76
REMARK   32  A    between atoms: _76  and  _77
REMARK   33  A    between atoms: _76  and  _79
REMARK   34  A    between atoms: _79  and  _80
REMARK   35  A    between atoms: _80  and  _81
REMARK   36  A    between atoms: _81  and  _82
REMARK   37  A    between atoms: _91  and  _93
REMARK   38  A    between atoms: _93  and  _94
REMARK   39  A    between atoms: _93  and  _96
REMARK   40  A    between atoms: _96  and  _97
REMARK   41  A    between atoms: _100  and  _102
REMARK   42  A    between atoms: _102  and  _103
REMARK   43  A    between atoms: _106  and  _108
REMARK   44  A    between atoms: _108  and  _109
REMARK   45  A    between atoms: _108  and  _111
REMARK   46  A    between atoms: _111  and  _112
REMARK   47  A    between atoms: _118  and  _120
REMARK   48  A    between atoms: _120  and  _121
REMARK   49  A    between atoms: _120  and  _123
REMARK   50  A    between atoms: _123  and  _124
REMARK   51  A    between atoms: _127  and  _129
REMARK   52  A    between atoms: _129  and  _130
REMARK   53  A    between atoms: _129  and  _132
REMARK   54  A    between atoms: _132  and  _133
REMARK   55  A    between atoms: _138  and  _139
REMARK   56  A    between atoms: _142  and  _143
REMARK   57  A    between atoms: _148  and  _150
REMARK   58  A    between atoms: _150  and  _151
REMARK   59  A    between atoms: _150  and  _153
REMARK   60  A    between atoms: _153  and  _154
REMARK   61  A    between atoms: _159  and  _161
REMARK   62  A    between atoms: _161  and  _162
REMARK   63  A    between atoms: _161  and  _164
REMARK   64  A    between atoms: _164  and  _165
REMARK   65  A    between atoms: _168  and  _170
REMARK   66  A    between atoms: _170  and  _171
REMARK   67  A    between atoms: _170  and  _173
REMARK   68  A    between atoms: _173  and  _174
REMARK   69  A    between atoms: _179  and  _181
REMARK   70  A    between atoms: _181  and  _182
REMARK   71  A    between atoms: _181  and  _184
REMARK   72  A    between atoms: _184  and  _185
REMARK   73  A    between atoms: _191  and  _193
REMARK   74  A    between atoms: _193  and  _194
REMARK   75  A    between atoms: _193  and  _196
REMARK   76  A    between atoms: _196  and  _197
REMARK   77  A    between atoms: _203  and  _205
REMARK   78  A    between atoms: _205  and  _206
REMARK   79  A    between atoms: _205  and  _208
REMARK   80  A    between atoms: _208  and  _209
REMARK   81  A    between atoms: _209  and  _210
REMARK   82  A    between atoms: _213  and  _215
REMARK   83  A    between atoms: _215  and  _216
REMARK   84  A    between atoms: _215  and  _218
REMARK   85  A    between atoms: _218  and  _219
REMARK   86  A    between atoms: _219  and  _220
REMARK   87  A    between atoms: _220  and  _221
REMARK   88  A    between atoms: _230  and  _232
REMARK   89  A    between atoms: _232  and  _233
REMARK   90  A    between atoms: _232  and  _235
REMARK   91  A    between atoms: _235  and  _236
REMARK   92  A    between atoms: _236  and  _237
REMARK   93  A    between atoms: _240  and  _242
REMARK   94  A    between atoms: _242  and  _243
REMARK   95  A    between atoms: _242  and  _245
REMARK   96  A    between atoms: _245  and  _246
REMARK   97  A    between atoms: _251  and  _253
REMARK   98  A    between atoms: _253  and  _254
REMARK   99  A    between atoms: _253  and  _256
REMARK  100  A    between atoms: _256  and  _257
REMARK  101  A    between atoms: _260  and  _262
REMARK  102  A    between atoms: _262  and  _263
REMARK  103  A    between atoms: _262  and  _265
REMARK  104  A    between atoms: _265  and  _266
REMARK  105  A    between atoms: _269  and  _271
REMARK  106  A    between atoms: _271  and  _272
REMARK  107  A    between atoms: _271  and  _274
REMARK  108  A    between atoms: _274  and  _275
REMARK  109  A    between atoms: _280  and  _282
REMARK  110  A    between atoms: _282  and  _283
REMARK  111  A    between atoms: _282  and  _285
REMARK  112  A    between atoms: _285  and  _286
REMARK  113  A    between atoms: _289  and  _291
REMARK  114  A    between atoms: _291  and  _292
REMARK  115  A    between atoms: _291  and  _294
REMARK  116  A    between atoms: _294  and  _295
REMARK  117  A    between atoms: _300  and  _302
REMARK  118  A    between atoms: _302  and  _303
REMARK  119  A    between atoms: _302  and  _305
REMARK  120  A    between atoms: _305  and  _306
REMARK  121  A    between atoms: _311  and  _313
REMARK  122  A    between atoms: _313  and  _314
REMARK  123  A    between atoms: _313  and  _316
REMARK  124  A    between atoms: _316  and  _317
REMARK  125  A    between atoms: _320  and  _322
REMARK  126  A    between atoms: _322  and  _323
REMARK  127  A    between atoms: _322  and  _325
REMARK  128  A    between atoms: _328  and  _330
REMARK  129  A    between atoms: _330  and  _331
REMARK  130  A    between atoms: _330  and  _333
REMARK  131  A    between atoms: _333  and  _334
REMARK  132  A    between atoms: _337  and  _339
REMARK  133  A    between atoms: _339  and  _340
REMARK  134  A    between atoms: _343  and  _345
REMARK  135  A    between atoms: _345  and  _346
REMARK  136  A    between atoms: _345  and  _348
REMARK  137  A    between atoms: _348  and  _349
REMARK  138  A    between atoms: _352  and  _354
REMARK  139  A    between atoms: _354  and  _355
REMARK  140  A    between atoms: _354  and  _357
REMARK  141  A    between atoms: _357  and  _358
REMARK  142  A    between atoms: _358  and  _359
REMARK  143  A    between atoms: _362  and  _364
REMARK  144  A    between atoms: _364  and  _365
REMARK  145  A    between atoms: _364  and  _367
REMARK  146  A    between atoms: _367  and  _368
REMARK  147  A    between atoms: _373  and  _375
REMARK  148  A    between atoms: _375  and  _376
REMARK  149  A    between atoms: _378  and  _380
REMARK  150  A    between atoms: _380  and  _381
REMARK  151  A    between atoms: _380  and  _383
REMARK  152  A    between atoms: _386  and  _388
REMARK  153  A    between atoms: _388  and  _389
REMARK  154  A    between atoms: _392  and  _394
REMARK  155  A    between atoms: _394  and  _395
REMARK  156  A    between atoms: _394  and  _397
REMARK  157  A    between atoms: _397  and  _398
REMARK  158  A    between atoms: _403  and  _405
REMARK  159  A    between atoms: _405  and  _406
REMARK  160  A    between atoms: _405  and  _408
REMARK  161  A    between atoms: _408  and  _409
REMARK  162  A    between atoms: _409  and  _410
REMARK  163  A    between atoms: _410  and  _411
REMARK  164  A    between atoms: _411  and  _412
REMARK  165  A    between atoms: _416  and  _418
REMARK  166  A    between atoms: _418  and  _419
REMARK  167  A    between atoms: _418  and  _421
REMARK  168  A    between atoms: _421  and  _422
REMARK  169  A    between atoms: _425  and  _427
REMARK  170  A    between atoms: _427  and  _428
REMARK  171  A    between atoms: _427  and  _430
REMARK  172  A    between atoms: _430  and  _431
REMARK  173  A    between atoms: _436  and  _438
REMARK  174  A    between atoms: _438  and  _439
REMARK  175  A    between atoms: _441  and  _443
REMARK  176  A    between atoms: _443  and  _444
REMARK  177  A    between atoms: _443  and  _446
REMARK  178  A    between atoms: _446  and  _447
REMARK  179  A    between atoms: _447  and  _448
REMARK  180  A    between atoms: _448  and  _449
REMARK  181  A    between atoms: _449  and  _450
REMARK  182  A    between atoms: _454  and  _456
REMARK  183  A    between atoms: _456  and  _457
REMARK  184  A    between atoms: _456  and  _459
REMARK  185  A    between atoms: _459  and  _460
REMARK  186  A    between atoms: _460  and  _461
REMARK  187  A    between atoms: _461  and  _462
REMARK  188  A    between atoms: _471  and  _473
REMARK  189  A    between atoms: _473  and  _474
REMARK  190  A    between atoms: _473  and  _476
REMARK  191  A    between atoms: _476  and  _477
REMARK  192  A    between atoms: _482  and  _484
REMARK  193  A    between atoms: _484  and  _485
REMARK  194  A    between atoms: _484  and  _487
REMARK  195  A    between atoms: _487  and  _488
REMARK  196  A    between atoms: _493  and  _494
REMARK  197  A    between atoms: _496  and  _498
REMARK  198  A    between atoms: _498  and  _499
REMARK  199  A    between atoms: _498  and  _501
REMARK  200  A    between atoms: _501  and  _502
REMARK  201  A    between atoms: _502  and  _503
REMARK  202  A    between atoms: _503  and  _504
REMARK  203  A    between atoms: _504  and  _505
REMARK  204  A    between atoms: _509  and  _511
REMARK  205  A    between atoms: _511  and  _512
REMARK  206  A    between atoms: _511  and  _514
REMARK  207  A    between atoms: _514  and  _515
REMARK  208  A    between atoms: _517  and  _519
REMARK  209  A    between atoms: _519  and  _520
REMARK  210  A    between atoms: _519  and  _522
REMARK  211  A    between atoms: _522  and  _523
REMARK  212  A    between atoms: _526  and  _528
REMARK  213  A    between atoms: _528  and  _529
REMARK  214  A    between atoms: _528  and  _531
REMARK  215  A    between atoms: _531  and  _532
REMARK  216  A    between atoms: _532  and  _533
REMARK  217  A    between atoms: _536  and  _538
REMARK  218  A    between atoms: _538  and  _539
REMARK  219  A    between atoms: _542  and  _544
REMARK  220  A    between atoms: _544  and  _545
REMARK  221  A    between atoms: _544  and  _547
REMARK  222  A    between atoms: _547  and  _548
REMARK  223  A    between atoms: _550  and  _552
REMARK  224  A    between atoms: _552  and  _553
REMARK  225  A    between atoms: _555  and  _557
REMARK  226  A    between atoms: _557  and  _558
REMARK  227  A    between atoms: _557  and  _560
REMARK  228  A    between atoms: _560  and  _561
REMARK  229  A    between atoms: _564  and  _566
REMARK  230  A    between atoms: _566  and  _567
REMARK  231  A    between atoms: _569  and  _571
REMARK  232  A    between atoms: _571  and  _572
REMARK  233  A    between atoms: _571  and  _574
REMARK  234  A    between atoms: _574  and  _575
REMARK  235  A    between atoms: _580  and  _582
REMARK  236  A    between atoms: _582  and  _583
REMARK  237  A    between atoms: _582  and  _585
REMARK  238  A    between atoms: _585  and  _586
REMARK  239  A    between atoms: _586  and  _587
REMARK  240  A    between atoms: _594  and  _595
REMARK  241  A    between atoms: _595  and  _611
REMARK  242  A    between atoms: _596  and  _598
REMARK  243  A    between atoms: _598  and  _599
REMARK  244  A    between atoms: _599  and  _600
REMARK  245  A    between atoms: _604  and  _606
REMARK  246  A    between atoms: _606  and  _607
REMARK  247  A    between atoms: _606  and  _614
REMARK  248  A    between atoms: _607  and  _608
REMARK  249  A    between atoms: _608  and  _609
REMARK  250  A    between atoms: _609  and  _610
REMARK  251  A    between atoms: _610  and  _611
REMARK  252  A    between atoms: _616  and  _618
REMARK  253  A    between atoms: _618  and  _619
REMARK  254  A    between atoms: _618  and  _621
REMARK  255  A    between atoms: _621  and  _622
REMARK  256  A    between atoms: _625  and  _627
REMARK  257  A    between atoms: _627  and  _628
REMARK  258  A    between atoms: _630  and  _632
REMARK  259  A    between atoms: _632  and  _633
REMARK  260  A    between atoms: _636  and  _638
REMARK  261  A    between atoms: _638  and  _639
REMARK  262  A    between atoms: _638  and  _641
REMARK  263  A    between atoms: _641  and  _642
REMARK  264  A    between atoms: _647  and  _648
REMARK                            x       y       z     vdW  Elec       q    Type
REMARK                         _______ _______ _______ _____ _____    ______ ____
ROOT
ATOM      1  CA  SER A   1      31.347  29.340  17.139  0.00  0.00    +0.163 C 
ENDROOT
BRANCH   1   2
ATOM      2  N   SER A   1      29.959  29.188  16.696  0.00  0.00    -0.237 NA
ATOM      3  H   SER A   1      29.414  28.370  17.035  0.00  0.00    +0.142 HD
ENDBRANCH   1   2
BRANCH   1   4
ATOM      4  C   SER A   1      32.303  29.378  15.951  0.00  0.00    +0.227 C 
ATOM      5  O   SER A   1      32.065  28.733  14.934  0.00  0.00    -0.287 OA
ENDBRANCH   1   4
BRANCH   1   6
ATOM      6  CB  SER A   1      31.733  28.188  18.069  0.00  0.00    +0.162 C 
BRANCH   6   7
ATOM      7  OG  SER A   1      31.507  26.936  17.438  0.00  0.00    -0.380 OA
ATOM      8  H   SER A   1      30.548  26.853  17.206  0.00  0.00    +0.211 HD
ENDBRANCH   6   7
ENDBRANCH   1   6
TORSDOF 4
REMARK  Name = ../refined-set-2016/2qrq/2qrq_pocket.pdb
REMARK  264 active torsions:
REMARK  status: ('A' for Active; 'I' for Inactive)
REMARK    1  A    between atoms: _1  and  _3
REMARK    2  A    between atoms: _3  and  _4
REMARK    3  A    between atoms: _3  and  _6
REMARK    4  A    between atoms: _6  and  _7
REMARK    5  A    between atoms: _12  and  _13
REMARK    6  A    between atoms: _15  and  _17
REMARK    7  A    between atoms: _17  and  _18
REMARK    8  A    between atoms: _17  and  _20
REMARK    9  A    between atoms: _20  and  _21
REMARK   10  A    between atoms: _24  and  _26
REMARK   11  A    between atoms: _26  and  _27
REMARK   12  A    between atoms: _26  and  _29
REMARK   13  A    between atoms: _29  and  _30
REMARK   14  A    between atoms: _30  and  _31
REMARK   15  A    between atoms: _34  and  _36
REMARK   16  A    between atoms: _36  and  _37
REMARK   17  A    between atoms: _39  and  _41
REMARK   18  A    between atoms: _41  and  _42
REMARK   19  A    between atoms: _41  and  _44
REMARK   20  A    between atoms: _44  and  _45
REMARK   21  A    between atoms: _50  and  _52
REMARK   22  A    between atoms: _52  and  _53
REMARK   23  A    between atoms: _55  and  _57
REMARK   24  A    between atoms: _57  and  _58
REMARK   25  A    between atoms: _60  and  _62
REMARK   26  A    between atoms: _62  and  _63
REMARK   27  A    between atoms: _62  and  _65
REMARK   28  A    between atoms: _65  and  _66
REMARK   29  A    between atoms: _69  and  _71
REMARK   30  A    between atoms: _71  and  _72
REMARK   31  A    between atoms: _74  and  _76
REMARK   32  A    between atoms: _76  and  _77
REMARK   33  A    between atoms: _76  and  _79
REMARK   34  A    between atoms: _79  and  _80
REMARK   35  A    between atoms: _80  and  _81
REMARK   36  A    between atoms: _81  and  _82
REMARK   37  A    between atoms: _91  and  _93
REMARK   38  A    between atoms: _93  and  _94
REMARK   39  A    between atoms: _93  and  _96
REMARK   40  A    between atoms: _96  and  _97
REMARK   41  A    between atoms: _100  and  _102
REMARK   42  A    between atoms: _102  and  _103
REMARK   43  A    between atoms: _106  and  _108
REMARK   44  A    between atoms: _108  and  _109
REMARK   45  A    between atoms: _108  and  _111
REMARK   46  A    between atoms: _111  and  _112
REMARK   47  A    between atoms: _118  and  _120
REMARK   48  A    between atoms: _120  and  _121
REMARK   49  A    between atoms: _120  and  _123
REMARK   50  A    between atoms: _123  and  _124
REMARK   51  A    between atoms: _127  and  _129
REMARK   52  A    between atoms: _129  and  _130
REMARK   53  A    between atoms: _129  and  _132
REMARK   54  A    between atoms: _132  and  _133
REMARK   55  A    between atoms: _138  and  _139
REMARK   56  A    between atoms: _142  and  _143
REMARK   57  A    between atoms: _148  and  _150
REMARK   58  A    between atoms: _150  and  _151
REMARK   59  A    between atoms: _150  and  _153
REMARK   60  A    between atoms: _153  and  _154
REMARK   61  A    between atoms: _159  and  _161
REMARK   62  A    between atoms: _161  and  _162
REMARK   63  A    between atoms: _161  and  _164
REMARK   64  A    between atoms: _164  and  _165
REMARK   65  A    between atoms: _168  and  _170
REMARK   66  A    between atoms: _170  and  _171
REMARK   67  A    between atoms: _170  and  _173
REMARK   68  A    between atoms: _173  and  _174
REMARK   69  A    between atoms: _179  and  _181
REMARK   70  A    between atoms: _181  and  _182
REMARK   71  A    between atoms: _181  and  _184
REMARK   72  A    between atoms: _184  and  _185
REMARK   73  A    between atoms: _191  and  _193
REMARK   74  A    between atoms: _193  and  _194
REMARK   75  A    between atoms: _193  and  _196
REMARK   76  A    between atoms: _196  and  _197
REMARK   77  A    between atoms: _203  and  _205
REMARK   78  A    between atoms: _205  and  _206
REMARK   79  A    between atoms: _205  and  _208
REMARK   80  A    between atoms: _208  and  _209
REMARK   81  A    between atoms: _209  and  _210
REMARK   82  A    between atoms: _213  and  _215
REMARK   83  A    between atoms: _215  and  _216
REMARK   84  A    between atoms: _215  and  _218
REMARK   85  A    between atoms: _218  and  _219
REMARK   86  A    between atoms: _219  and  _220
REMARK   87  A    between atoms: _220  and  _221
REMARK   88  A    between atoms: _230  and  _232
REMARK   89  A    between atoms: _232  and  _233
REMARK   90  A    between atoms: _232  and  _235
REMARK   91  A    between atoms: _235  and  _236
REMARK   92  A    between atoms: _236  and  _237
REMARK   93  A    between atoms: _240  and  _242
REMARK   94  A    between atoms: _242  and  _243
REMARK   95  A    between atoms: _242  and  _245
REMARK   96  A    between atoms: _245  and  _246
REMARK   97  A    between atoms: _251  and  _253
REMARK   98  A    between atoms: _253  and  _254
REMARK   99  A    between atoms: _253  and  _256
REMARK  100  A    between atoms: _256  and  _257
REMARK  101  A    between atoms: _260  and  _262
REMARK  102  A    between atoms: _262  and  _263
REMARK  103  A    between atoms: _262  and  _265
REMARK  104  A    between atoms: _265  and  _266
REMARK  105  A    between atoms: _269  and  _271
REMARK  106  A    between atoms: _271  and  _272
REMARK  107  A    between atoms: _271  and  _274
REMARK  108  A    between atoms: _274  and  _275
REMARK  109  A    between atoms: _280  and  _282
REMARK  110  A    between atoms: _282  and  _283
REMARK  111  A    between atoms: _282  and  _285
REMARK  112  A    between atoms: _285  and  _286
REMARK  113  A    between atoms: _289  and  _291
REMARK  114  A    between atoms: _291  and  _292
REMARK  115  A    between atoms: _291  and  _294
REMARK  116  A    between atoms: _294  and  _295
REMARK  117  A    between atoms: _300  and  _302
REMARK  118  A    between atoms: _302  and  _303
REMARK  119  A    between atoms: _302  and  _305
REMARK  120  A    between atoms: _305  and  _306
REMARK  121  A    between atoms: _311  and  _313
REMARK  122  A    between atoms: _313  and  _314
REMARK  123  A    between atoms: _313  and  _316
REMARK  124  A    between atoms: _316  and  _317
REMARK  125  A    between atoms: _320  and  _322
REMARK  126  A    between atoms: _322  and  _323
REMARK  127  A    between atoms: _322  and  _325
REMARK  128  A    between atoms: _328  and  _330
REMARK  129  A    between atoms: _330  and  _331
REMARK  130  A    between atoms: _330  and  _333
REMARK  131  A    between atoms: _333  and  _334
REMARK  132  A    between atoms: _337  and  _339
REMARK  133  A    between atoms: _339  and  _340
REMARK  134  A    between atoms: _343  and  _345
REMARK  135  A    between atoms: _345  and  _346
REMARK  136  A    between atoms: _345  and  _348
REMARK  137  A    between atoms: _348  and  _349
REMARK  138  A    between atoms: _352  and  _354
REMARK  139  A    between atoms: _354  and  _355
REMARK  140  A    between atoms: _354  and  _357
REMARK  141  A    between atoms: _357  and  _358
REMARK  142  A    between atoms: _358  and  _359
REMARK  143  A    between atoms: _362  and  _364
REMARK  144  A    between atoms: _364  and  _365
REMARK  145  A    between atoms: _364  and  _367
REMARK  146  A    between atoms: _367  and  _368
REMARK  147  A    between atoms: _373  and  _375
REMARK  148  A    between atoms: _375  and  _376
REMARK  149  A    between atoms: _378  and  _380
REMARK  150  A    between atoms: _380  and  _381
REMARK  151  A    between atoms: _380  and  _383
REMARK  152  A    between atoms: _386  and  _388
REMARK  153  A    between atoms: _388  and  _389
REMARK  154  A    between atoms: _392  and  _394
REMARK  155  A    between atoms: _394  and  _395
REMARK  156  A    between atoms: _394  and  _397
REMARK  157  A    between atoms: _397  and  _398
REMARK  158  A    between atoms: _403  and  _405
REMARK  159  A    between atoms: _405  and  _406
REMARK  160  A    between atoms: _405  and  _408
REMARK  161  A    between atoms: _408  and  _409
REMARK  162  A    between atoms: _409  and  _410
REMARK  163  A    between atoms: _410  and  _411
REMARK  164  A    between atoms: _411  and  _412
REMARK  165  A    between atoms: _416  and  _418
REMARK  166  A    between atoms: _418  and  _419
REMARK  167  A    between atoms: _418  and  _421
REMARK  168  A    between atoms: _421  and  _422
REMARK  169  A    between atoms: _425  and  _427
REMARK  170  A    between atoms: _427  and  _428
REMARK  171  A    between atoms: _427  and  _430
REMARK  172  A    between atoms: _430  and  _431
REMARK  173  A    between atoms: _436  and  _438
REMARK  174  A    between atoms: _438  and  _439
REMARK  175  A    between atoms: _441  and  _443
REMARK  176  A    between atoms: _443  and  _444
REMARK  177  A    between atoms: _443  and  _446
REMARK  178  A    between atoms: _446  and  _447
REMARK  179  A    between atoms: _447  and  _448
REMARK  180  A    between atoms: _448  and  _449
REMARK  181  A    between atoms: _449  and  _450
REMARK  182  A    between atoms: _454  and  _456
REMARK  183  A    between atoms: _456  and  _457
REMARK  184  A    between atoms: _456  and  _459
REMARK  185  A    between atoms: _459  and  _460
REMARK  186  A    between atoms: _460  and  _461
REMARK  187  A    between atoms: _461  and  _462
REMARK  188  A    between atoms: _471  and  _473
REMARK  189  A    between atoms: _473  and  _474
REMARK  190  A    between atoms: _473  and  _476
REMARK  191  A    between atoms: _476  and  _477
REMARK  192  A    between atoms: _482  and  _484
REMARK  193  A    between atoms: _484  and  _485
REMARK  194  A    between atoms: _484  and  _487
REMARK  195  A    between atoms: _487  and  _488
REMARK  196  A    between atoms: _493  and  _494
REMARK  197  A    between atoms: _496  and  _498
REMARK  198  A    between atoms: _498  and  _499
REMARK  199  A    between atoms: _498  and  _501
REMARK  200  A    between atoms: _501  and  _502
REMARK  201  A    between atoms: _502  and  _503
REMARK  202  A    between atoms: _503  and  _504
REMARK  203  A    between atoms: _504  and  _505
REMARK  204  A    between atoms: _509  and  _511
REMARK  205  A    between atoms: _511  and  _512
REMARK  206  A    between atoms: _511  and  _514
REMARK  207  A    between atoms: _514  and  _515
REMARK  208  A    between atoms: _517  and  _519
REMARK  209  A    between atoms: _519  and  _520
REMARK  210  A    between atoms: _519  and  _522
REMARK  211  A    between atoms: _522  and  _523
REMARK  212  A    between atoms: _526  and  _528
REMARK  213  A    between atoms: _528  and  _529
REMARK  214  A    between atoms: _528  and  _531
REMARK  215  A    between atoms: _531  and  _532
REMARK  216  A    between atoms: _532  and  _533
REMARK  217  A    between atoms: _536  and  _538
REMARK  218  A    between atoms: _538  and  _539
REMARK  219  A    between atoms: _542  and  _544
REMARK  220  A    between atoms: _544  and  _545
REMARK  221  A    between atoms: _544  and  _547
REMARK  222  A    between atoms: _547  and  _548
REMARK  223  A    between atoms: _550  and  _552
REMARK  224  A    between atoms: _552  and  _553
REMARK  225  A    between atoms: _555  and  _557
REMARK  226  A    between atoms: _557  and  _558
REMARK  227  A    between atoms: _557  and  _560
REMARK  228  A    between atoms: _560  and  _561
REMARK  229  A    between atoms: _564  and  _566
REMARK  230  A    between atoms: _566  and  _567
REMARK  231  A    between atoms: _569  and  _571
REMARK  232  A    between atoms: _571  and  _572
REMARK  233  A    between atoms: _571  and  _574
REMARK  234  A    between atoms: _574  and  _575
REMARK  235  A    between atoms: _580  and  _582
REMARK  236  A    between atoms: _582  and  _583
REMARK  237  A    between atoms: _582  and  _585
REMARK  238  A    between atoms: _585  and  _586
REMARK  239  A    between atoms: _586  and  _587
REMARK  240  A    between atoms: _594  and  _595
REMARK  241  A    between atoms: _595  and  _611
REMARK  242  A    between atoms: _596  and  _598
REMARK  243  A    between atoms: _598  and  _599
REMARK  244  A    between atoms: _599  and  _600
REMARK  245  A    between atoms: _604  and  _606
REMARK  246  A    between atoms: _606  and  _607
REMARK  247  A    between atoms: _606  and  _614
REMARK  248  A    between atoms: _607  and  _608
REMARK  249  A    between atoms: _608  and  _609
REMARK  250  A    between atoms: _609  and  _610
REMARK  251  A    between atoms: _610  and  _611
REMARK  252  A    between atoms: _616  and  _618
REMARK  253  A    between atoms: _618  and  _619
REMARK  254  A    between atoms: _618  and  _621
REMARK  255  A    between atoms: _621  and  _622
REMARK  256  A    between atoms: _625  and  _627
REMARK  257  A    between atoms: _627  and  _628
REMARK  258  A    between atoms: _630  and  _632
REMARK  259  A    between atoms: _632  and  _633
REMARK  260  A    between atoms: _636  and  _638
REMARK  261  A    between atoms: _638  and  _639
REMARK  262  A    between atoms: _638  and  _641
REMARK  263  A    between atoms: _641  and  _642
REMARK  264  A    between atoms: _647  and  _648
REMARK                            x       y       z     vdW  Elec       q    Type
REMARK                         _______ _______ _______ _____ _____    ______ ____
ROOT
ATOM      1  CA  GLY A   7      23.378  22.364  23.486  0.00  0.00    +0.176 C 
ENDROOT
BRANCH   1   2
ATOM      2  C   GLY A   7      22.901  22.048  22.080  0.00  0.00    +0.243 C 
ATOM      3  O   GLY A   7      21.718  21.768  21.861  0.00  0.00    -0.273 OA
ATOM      4  N   ASN A   8      23.835  22.069  21.131  0.00  0.00    -0.297 N 
ATOM      5  H   ASN A   8      24.797  22.378  21.378  0.00  0.00    +0.150 HD
BRANCH   4   6
ATOM      6  CA  ASN A   8      23.552  21.671  19.750  0.00  0.00    +0.158 C 
BRANCH   6   7
ATOM      7  C   ASN A   8      22.742  20.373  19.644  0.00  0.00    +0.241 C 
ATOM      8  N   MET A   9      23.179  19.357  20.381  0.00  0.00    -0.297 N 
ATOM      9  H   MET A   9      24.016  19.502  20.981  0.00  0.00    +0.150 HD
ATOM     10  O   ASN A   8      21.729  20.316  18.937  0.00  0.00    -0.273 OA
BRANCH   8  11
ATOM     11  CA  MET A   9      22.534  18.042  20.386  0.00  0.00    +0.149 C 
BRANCH  11  12
ATOM     12  C   MET A   9      21.124  18.106  20.957  0.00  0.00    +0.241 C 
ATOM     13  N   UNK A  10      20.954  18.892  22.021  0.00  0.00    -0.298 N 
ATOM     14  H   UNK A  10      21.779  19.392  22.408  0.00  0.00    +0.150 HD
ATOM     15  O   MET A   9      20.215  17.454  20.438  0.00  0.00    -0.273 OA
BRANCH  13  16
ATOM     16  C   UNK A  10      19.652  19.080  22.667  0.00  0.00    +0.137 C 
BRANCH  16  17
ATOM     17  C   UNK A  10      18.629  19.650  21.688  0.00  0.00    +0.227 C 
ATOM     18  O   UNK A  10      17.492  19.183  21.626  0.00  0.00    -0.286 OA
ENDBRANCH  16  17
BRANCH  16  19
ATOM     19  C   UNK A  10      19.770  19.995  23.895  0.00  0.00    +0.028 C 
BRANCH  19  20
ATOM     20  C   UNK A  10      20.705  19.494  24.986  0.00  0.00    -0.000 C 
BRANCH  20  21
ATOM     21  C   UNK A  10      20.914  20.559  26.050  0.00  0.00    -0.023 C 
BRANCH  21  22
ATOM     22  C   UNK A  10      22.182  20.302  26.846  0.00  0.00    -0.081 C 
BRANCH  22  23
ATOM     23  N   UNK A  10      22.432  21.424  27.803  0.00  0.00    +0.387 N 
ATOM     24  H   UNK A  10      21.661  22.118  27.727  0.00  0.00    -0.084 HD
ATOM     25  H   UNK A  10      22.464  21.048  28.772  0.00  0.00    -0.084 HD
BRANCH  23  26
ATOM     26  C   UNK A  10      23.589  22.020  27.524  0.00  0.00    -0.051 C 
BRANCH  26  27
ATOM     27  C   UNK A  10      23.796  23.270  28.348  0.00  0.00    -0.007 C 
ATOM     28  C   UNK A  10      24.929  24.056  28.119  0.00  0.00    +0.023 C 
ATOM     29  C   UNK A  10      25.151  25.227  28.843  0.00  0.00    +0.091 C 
ATOM     30  N   UNK A  10      24.258  25.601  29.823  0.00  0.00    -0.263 NA
ATOM     31  C   UNK A  10      23.143  24.826  30.080  0.00  0.00    +0.164 C 
ATOM     32  C   UNK A  10      22.197  25.259  31.155  0.00  0.00    +0.035 C 
ATOM     33  C   UNK A  10      22.899  23.659  29.350  0.00  0.00    +0.189 C 
ATOM     34  O   UNK A  10      21.890  22.992  29.601  0.00  0.00    -0.290 OA
BRANCH  28  35
ATOM     35  C   UNK A  10      25.898  23.705  27.037  0.00  0.00    +0.181 C 
BRANCH  35  36
ATOM     36  O   UNK A  10      25.542  24.353  25.787  0.00  0.00    -0.265 OA
BRANCH  36  37
ATOM     37  P   UNK A  10      26.600  24.733  24.632  0.00  0.00    +0.533 P 
ATOM     38  O   UNK A  10      27.096  23.420  24.178  0.00  0.00    -0.115 OA
ATOM     39  O   UNK A  10      27.618  25.595  25.275  0.00  0.00    -0.115 OA
ATOM     40  O   UNK A  10      25.722  25.435  23.668  0.00  0.00    -0.222 OA
ENDBRANCH  36  37
ENDBRANCH  35  36
ENDBRANCH  28  35
ENDBRANCH  26  27
ENDBRANCH  23  26
ENDBRANCH  22  23
ENDBRANCH  21  22
ENDBRANCH  20  21
ENDBRANCH  19  20
ENDBRANCH  16  19
ENDBRANCH  13  16
ENDBRANCH  11  12
BRANCH  11  41
ATOM     41  CB  MET A   9      23.374  17.048  21.185  0.00  0.00    +0.041 C 
BRANCH  41  42
ATOM     42  CG  MET A   9      24.803  16.927  20.684  0.00  0.00    +0.060 C 
BRANCH  42  43
ATOM     43  SD  MET A   9      25.841  15.988  21.799  0.00  0.00    -0.139 S 
ATOM     44  CE  MET A   9      27.447  16.244  21.052  0.00  0.00    +0.069 C 
ENDBRANCH  42  43
ENDBRANCH  41  42
ENDBRANCH  11  41
ENDBRANCH   8  11
ENDBRANCH   6   7
BRANCH   6  45
ATOM     45  CB  ASN A   8      24.839  21.598  18.908  0.00  0.00    +0.114 C 
BRANCH  45  46
ATOM     46  CG  ASN A   8      25.961  20.801  19.572  0.00  0.00    +0.222 C 
ATOM     47  OD1 ASN A   8      25.782  20.160  20.612  0.00  0.00    -0.275 OA
ATOM     48  ND2 ASN A   8      27.135  20.837  18.955  0.00  0.00    -0.329 N 
ATOM     49 HD21 ASN A   8      27.944  20.313  19.346  0.00  0.00    +0.145 HD
ATOM     50 HD22 ASN A   8      27.246  21.389  18.080  0.00  0.00    +0.145 HD
ENDBRANCH  45  46
ENDBRANCH   6  45
ENDBRANCH   4   6
ENDBRANCH   1   2
BRANCH   1  52
ATOM     51  C   THR A   6      24.728  20.325  23.624  0.00  0.00    +0.243 C 
ATOM     52  N   GLY A   7      24.628  21.650  23.751  0.00  0.00    -0.295 N 
ATOM     53  H   GLY A   7      25.465  22.192  24.048  0.00  0.00    +0.150 HD
ATOM     54  O   THR A   6      23.764  19.594  23.395  0.00  0.00    -0.273 OA
BRANCH  51  55
ATOM     55  CA  THR A   6      26.122  19.735  23.777  0.00  0.00    +0.176 C 
BRANCH  55  57
ATOM     56  C   GLY A   5      28.177  20.423  22.655  0.00  0.00    +0.243 C 
ATOM     57  N   THR A   6      27.134  20.728  23.418  0.00  0.00    -0.295 N 
ATOM     58  H   THR A   6      27.034  21.701  23.771  0.00  0.00    +0.150 HD
ATOM     59  O   GLY A   5      28.434  19.269  22.297  0.00  0.00    -0.273 OA
BRANCH  56  60
ATOM     60  CA  GLY A   5      29.077  21.578  22.258  0.00  0.00    +0.176 C 
BRANCH  60  62
ATOM     61  C   SER A   4      30.821  20.489  20.964  0.00  0.00    +0.243 C 
ATOM     62  N   GLY A   5      30.433  21.084  22.089  0.00  0.00    -0.295 N 
ATOM     63  H   GLY A   5      31.116  21.198  22.865  0.00  0.00    +0.150 HD
ATOM     64  O   SER A   4      30.188  20.559  19.907  0.00  0.00    -0.273 OA
BRANCH  61  65
ATOM     65  CA  SER A   4      32.123  19.713  21.040  0.00  0.00    +0.178 C 
BRANCH  65  67
ATOM     66  C   ALA A   3      34.450  20.435  20.982  0.00  0.00    +0.241 C 
ATOM     67  N   SER A   4      33.226  20.562  21.489  0.00  0.00    -0.295 N 
ATOM     68  H   SER A   4      33.050  21.280  22.220  0.00  0.00    +0.150 HD
ATOM     69  O   ALA A   3      34.747  19.566  20.160  0.00  0.00    -0.273 OA
BRANCH  66  70
ATOM     70  CA  ALA A   3      35.495  21.449  21.450  0.00  0.00    +0.149 C 
ATOM     71  CB  ALA A   3      36.047  21.080  22.824  0.00  0.00    +0.031 C 
BRANCH  70  73
ATOM     72  C   GLU A   2      34.438  23.345  20.340  0.00  0.00    +0.241 C 
ATOM     73  N   ALA A   3      34.970  22.817  21.441  0.00  0.00    -0.297 N 
ATOM     74  H   ALA A   3      35.014  23.386  22.310  0.00  0.00    +0.150 HD
ATOM     75  O   GLU A   2      34.279  22.706  19.298  0.00  0.00    -0.273 OA
BRANCH  72  76
ATOM     76  CA  GLU A   2      34.028  24.809  20.409  0.00  0.00    +0.149 C 
BRANCH  76  79
ATOM     77  C   THR A   1      36.039  26.150  20.024  0.00  0.00    +0.241 C 
ATOM     78  O   THR A   1      36.350  26.126  21.219  0.00  0.00    -0.274 OA
ATOM     79  N   GLU A   2      34.926  25.585  19.552  0.00  0.00    -0.297 N 
ATOM     80  H   GLU A   2      34.690  25.699  18.546  0.00  0.00    +0.150 HD
BRANCH  77  81
ATOM     81  CA  THR A   1      36.946  26.866  19.014  0.00  0.00    +0.172 C 
BRANCH  81  82
ATOM     82  N   THR A   1      36.997  26.285  17.661  0.00  0.00    -0.236 NA
ATOM     83  H   THR A   1      36.182  26.404  17.026  0.00  0.00    +0.142 HD
ENDBRANCH  81  82
BRANCH  81  84
ATOM     84  CB  THR A   1      36.594  28.380  19.001  0.00  0.00    +0.135 C 
ATOM     85  CG2 THR A   1      37.601  29.180  18.170  0.00  0.00    +0.034 C 
BRANCH  84  86
ATOM     86  OG1 THR A   1      35.269  28.577  18.488  0.00  0.00    -0.383 OA
ATOM     87  HG1 THR A   1      35.218  28.224  17.564  0.00  0.00    +0.210 HD
ENDBRANCH  84  86
ENDBRANCH  81  84
ENDBRANCH  77  81
ENDBRANCH  76  79
BRANCH  76  88
ATOM     88  CB  GLU A   2      32.566  24.969  19.962  0.00  0.00    +0.041 C 
BRANCH  88  89
ATOM     89  CG  GLU A   2      31.532  24.433  20.953  0.00  0.00    +0.116 C 
BRANCH  89  90
ATOM     90  CD  GLU A   2      31.343  25.350  22.146  0.00  0.00    +0.365 C 
ATOM     91  OE2 GLU A   2      31.983  25.104  23.190  0.00  0.00    -0.246 OA
ATOM     92  OE1 GLU A   2      30.579  26.330  22.029  0.00  0.00    -0.246 OA
ENDBRANCH  89  90
ENDBRANCH  88  89
ENDBRANCH  76  88
ENDBRANCH  72  76
ENDBRANCH  70  73
ENDBRANCH  66  70
ENDBRANCH  65  67
BRANCH  65  93
ATOM     93  CB  SER A   4      31.948  18.505  21.975  0.00  0.00    +0.166 C 
BRANCH  93  94
ATOM     94  OG  SER A   4      30.714  17.830  21.734  0.00  0.00    -0.380 OA
ATOM     95  H   SER A   4      29.962  18.456  21.886  0.00  0.00    +0.211 HD
ENDBRANCH  93  94
ENDBRANCH  65  93
ENDBRANCH  61  65
ENDBRANCH  60  62
ENDBRANCH  56  60
ENDBRANCH  55  57
BRANCH  55  96
ATOM     96  CB  THR A   6      26.304  19.198  25.209  0.00  0.00    +0.137 C 
ATOM     97  CG2 THR A   6      27.516  18.261  25.295  0.00  0.00    +0.034 C 
BRANCH  96  98
ATOM     98  OG1 THR A   6      26.478  20.297  26.107  0.00  0.00    -0.382 OA
ATOM     99  HG1 THR A   6      27.279  20.814  25.842  0.00  0.00    +0.210 HD
ENDBRANCH  96  98
ENDBRANCH  55  96
ENDBRANCH  51  55
ENDBRANCH   1  52
TORSDOF 44
REMARK  Name = ../refined-set-2016/2qrq/2qrq_pocket.pdb
REMARK  264 active torsions:
REMARK  status: ('A' for Active; 'I' for Inactive)
REMARK    1  A    between atoms: _1  and  _3
REMARK    2  A    between atoms: _3  and  _4
REMARK    3  A    between atoms: _3  and  _6
REMARK    4  A    between atoms: _6  and  _7
REMARK    5  A    between atoms: _12  and  _13
REMARK    6  A    between atoms: _15  and  _17
REMARK    7  A    between atoms: _17  and  _18
REMARK    8  A    between atoms: _17  and  _20
REMARK    9  A    between atoms: _20  and  _21
REMARK   10  A    between atoms: _24  and  _26
REMARK   11  A    between atoms: _26  and  _27
REMARK   12  A    between atoms: _26  and  _29
REMARK   13  A    between atoms: _29  and  _30
REMARK   14  A    between atoms: _30  and  _31
REMARK   15  A    between atoms: _34  and  _36
REMARK   16  A    between atoms: _36  and  _37
REMARK   17  A    between atoms: _39  and  _41
REMARK   18  A    between atoms: _41  and  _42
REMARK   19  A    between atoms: _41  and  _44
REMARK   20  A    between atoms: _44  and  _45
REMARK   21  A    between atoms: _50  and  _52
REMARK   22  A    between atoms: _52  and  _53
REMARK   23  A    between atoms: _55  and  _57
REMARK   24  A    between atoms: _57  and  _58
REMARK   25  A    between atoms: _60  and  _62
REMARK   26  A    between atoms: _62  and  _63
REMARK   27  A    between atoms: _62  and  _65
REMARK   28  A    between atoms: _65  and  _66
REMARK   29  A    between atoms: _69  and  _71
REMARK   30  A    between atoms: _71  and  _72
REMARK   31  A    between atoms: _74  and  _76
REMARK   32  A    between atoms: _76  and  _77
REMARK   33  A    between atoms: _76  and  _79
REMARK   34  A    between atoms: _79  and  _80
REMARK   35  A    between atoms: _80  and  _81
REMARK   36  A    between atoms: _81  and  _82
REMARK   37  A    between atoms: _91  and  _93
REMARK   38  A    between atoms: _93  and  _94
REMARK   39  A    between atoms: _93  and  _96
REMARK   40  A    between atoms: _96  and  _97
REMARK   41  A    between atoms: _100  and  _102
REMARK   42  A    between atoms: _102  and  _103
REMARK   43  A    between atoms: _106  and  _108
REMARK   44  A    between atoms: _108  and  _109
REMARK   45  A    between atoms: _108  and  _111
REMARK   46  A    between atoms: _111  and  _112
REMARK   47  A    between atoms: _118  and  _120
REMARK   48  A    between atoms: _120  and  _121
REMARK   49  A    between atoms: _120  and  _123
REMARK   50  A    between atoms: _123  and  _124
REMARK   51  A    between atoms: _127  and  _129
REMARK   52  A    between atoms: _129  and  _130
REMARK   53  A    between atoms: _129  and  _132
REMARK   54  A    between atoms: _132  and  _133
REMARK   55  A    between atoms: _138  and  _139
REMARK   56  A    between atoms: _142  and  _143
REMARK   57  A    between atoms: _148  and  _150
REMARK   58  A    between atoms: _150  and  _151
REMARK   59  A    between atoms: _150  and  _153
REMARK   60  A    between atoms: _153  and  _154
REMARK   61  A    between atoms: _159  and  _161
REMARK   62  A    between atoms: _161  and  _162
REMARK   63  A    between atoms: _161  and  _164
REMARK   64  A    between atoms: _164  and  _165
REMARK   65  A    between atoms: _168  and  _170
REMARK   66  A    between atoms: _170  and  _171
REMARK   67  A    between atoms: _170  and  _173
REMARK   68  A    between atoms: _173  and  _174
REMARK   69  A    between atoms: _179  and  _181
REMARK   70  A    between atoms: _181  and  _182
REMARK   71  A    between atoms: _181  and  _184
REMARK   72  A    between atoms: _184  and  _185
REMARK   73  A    between atoms: _191  and  _193
REMARK   74  A    between atoms: _193  and  _194
REMARK   75  A    between atoms: _193  and  _196
REMARK   76  A    between atoms: _196  and  _197
REMARK   77  A    between atoms: _203  and  _205
REMARK   78  A    between atoms: _205  and  _206
REMARK   79  A    between atoms: _205  and  _208
REMARK   80  A    between atoms: _208  and  _209
REMARK   81  A    between atoms: _209  and  _210
REMARK   82  A    between atoms: _213  and  _215
REMARK   83  A    between atoms: _215  and  _216
REMARK   84  A    between atoms: _215  and  _218
REMARK   85  A    between atoms: _218  and  _219
REMARK   86  A    between atoms: _219  and  _220
REMARK   87  A    between atoms: _220  and  _221
REMARK   88  A    between atoms: _230  and  _232
REMARK   89  A    between atoms: _232  and  _233
REMARK   90  A    between atoms: _232  and  _235
REMARK   91  A    between atoms: _235  and  _236
REMARK   92  A    between atoms: _236  and  _237
REMARK   93  A    between atoms: _240  and  _242
REMARK   94  A    between atoms: _242  and  _243
REMARK   95  A    between atoms: _242  and  _245
REMARK   96  A    between atoms: _245  and  _246
REMARK   97  A    between atoms: _251  and  _253
REMARK   98  A    between atoms: _253  and  _254
REMARK   99  A    between atoms: _253  and  _256
REMARK  100  A    between atoms: _256  and  _257
REMARK  101  A    between atoms: _260  and  _262
REMARK  102  A    between atoms: _262  and  _263
REMARK  103  A    between atoms: _262  and  _265
REMARK  104  A    between atoms: _265  and  _266
REMARK  105  A    between atoms: _269  and  _271
REMARK  106  A    between atoms: _271  and  _272
REMARK  107  A    between atoms: _271  and  _274
REMARK  108  A    between atoms: _274  and  _275
REMARK  109  A    between atoms: _280  and  _282
REMARK  110  A    between atoms: _282  and  _283
REMARK  111  A    between atoms: _282  and  _285
REMARK  112  A    between atoms: _285  and  _286
REMARK  113  A    between atoms: _289  and  _291
REMARK  114  A    between atoms: _291  and  _292
REMARK  115  A    between atoms: _291  and  _294
REMARK  116  A    between atoms: _294  and  _295
REMARK  117  A    between atoms: _300  and  _302
REMARK  118  A    between atoms: _302  and  _303
REMARK  119  A    between atoms: _302  and  _305
REMARK  120  A    between atoms: _305  and  _306
REMARK  121  A    between atoms: _311  and  _313
REMARK  122  A    between atoms: _313  and  _314
REMARK  123  A    between atoms: _313  and  _316
REMARK  124  A    between atoms: _316  and  _317
REMARK  125  A    between atoms: _320  and  _322
REMARK  126  A    between atoms: _322  and  _323
REMARK  127  A    between atoms: _322  and  _325
REMARK  128  A    between atoms: _328  and  _330
REMARK  129  A    between atoms: _330  and  _331
REMARK  130  A    between atoms: _330  and  _333
REMARK  131  A    between atoms: _333  and  _334
REMARK  132  A    between atoms: _337  and  _339
REMARK  133  A    between atoms: _339  and  _340
REMARK  134  A    between atoms: _343  and  _345
REMARK  135  A    between atoms: _345  and  _346
REMARK  136  A    between atoms: _345  and  _348
REMARK  137  A    between atoms: _348  and  _349
REMARK  138  A    between atoms: _352  and  _354
REMARK  139  A    between atoms: _354  and  _355
REMARK  140  A    between atoms: _354  and  _357
REMARK  141  A    between atoms: _357  and  _358
REMARK  142  A    between atoms: _358  and  _359
REMARK  143  A    between atoms: _362  and  _364
REMARK  144  A    between atoms: _364  and  _365
REMARK  145  A    between atoms: _364  and  _367
REMARK  146  A    between atoms: _367  and  _368
REMARK  147  A    between atoms: _373  and  _375
REMARK  148  A    between atoms: _375  and  _376
REMARK  149  A    between atoms: _378  and  _380
REMARK  150  A    between atoms: _380  and  _381
REMARK  151  A    between atoms: _380  and  _383
REMARK  152  A    between atoms: _386  and  _388
REMARK  153  A    between atoms: _388  and  _389
REMARK  154  A    between atoms: _392  and  _394
REMARK  155  A    between atoms: _394  and  _395
REMARK  156  A    between atoms: _394  and  _397
REMARK  157  A    between atoms: _397  and  _398
REMARK  158  A    between atoms: _403  and  _405
REMARK  159  A    between atoms: _405  and  _406
REMARK  160  A    between atoms: _405  and  _408
REMARK  161  A    between atoms: _408  and  _409
REMARK  162  A    between atoms: _409  and  _410
REMARK  163  A    between atoms: _410  and  _411
REMARK  164  A    between atoms: _411  and  _412
REMARK  165  A    between atoms: _416  and  _418
REMARK  166  A    between atoms: _418  and  _419
REMARK  167  A    between atoms: _418  and  _421
REMARK  168  A    between atoms: _421  and  _422
REMARK  169  A    between atoms: _425  and  _427
REMARK  170  A    between atoms: _427  and  _428
REMARK  171  A    between atoms: _427  and  _430
REMARK  172  A    between atoms: _430  and  _431
REMARK  173  A    between atoms: _436  and  _438
REMARK  174  A    between atoms: _438  and  _439
REMARK  175  A    between atoms: _441  and  _443
REMARK  176  A    between atoms: _443  and  _444
REMARK  177  A    between atoms: _443  and  _446
REMARK  178  A    between atoms: _446  and  _447
REMARK  179  A    between atoms: _447  and  _448
REMARK  180  A    between atoms: _448  and  _449
REMARK  181  A    between atoms: _449  and  _450
REMARK  182  A    between atoms: _454  and  _456
REMARK  183  A    between atoms: _456  and  _457
REMARK  184  A    between atoms: _456  and  _459
REMARK  185  A    between atoms: _459  and  _460
REMARK  186  A    between atoms: _460  and  _461
REMARK  187  A    between atoms: _461  and  _462
REMARK  188  A    between atoms: _471  and  _473
REMARK  189  A    between atoms: _473  and  _474
REMARK  190  A    between atoms: _473  and  _476
REMARK  191  A    between atoms: _476  and  _477
REMARK  192  A    between atoms: _482  and  _484
REMARK  193  A    between atoms: _484  and  _485
REMARK  194  A    between atoms: _484  and  _487
REMARK  195  A    between atoms: _487  and  _488
REMARK  196  A    between atoms: _493  and  _494
REMARK  197  A    between atoms: _496  and  _498
REMARK  198  A    between atoms: _498  and  _499
REMARK  199  A    between atoms: _498  and  _501
REMARK  200  A    between atoms: _501  and  _502
REMARK  201  A    between atoms: _502  and  _503
REMARK  202  A    between atoms: _503  and  _504
REMARK  203  A    between atoms: _504  and  _505
REMARK  204  A    between atoms: _509  and  _511
REMARK  205  A    between atoms: _511  and  _512
REMARK  206  A    between atoms: _511  and  _514
REMARK  207  A    between atoms: _514  and  _515
REMARK  208  A    between atoms: _517  and  _519
REMARK  209  A    between atoms: _519  and  _520
REMARK  210  A    between atoms: _519  and  _522
REMARK  211  A    between atoms: _522  and  _523
REMARK  212  A    between atoms: _526  and  _528
REMARK  213  A    between atoms: _528  and  _529
REMARK  214  A    between atoms: _528  and  _531
REMARK  215  A    between atoms: _531  and  _532
REMARK  216  A    between atoms: _532  and  _533
REMARK  217  A    between atoms: _536  and  _538
REMARK  218  A    between atoms: _538  and  _539
REMARK  219  A    between atoms: _542  and  _544
REMARK  220  A    between atoms: _544  and  _545
REMARK  221  A    between atoms: _544  and  _547
REMARK  222  A    between atoms: _547  and  _548
REMARK  223  A    between atoms: _550  and  _552
REMARK  224  A    between atoms: _552  and  _553
REMARK  225  A    between atoms: _555  and  _557
REMARK  226  A    between atoms: _557  and  _558
REMARK  227  A    between atoms: _557  and  _560
REMARK  228  A    between atoms: _560  and  _561
REMARK  229  A    between atoms: _564  and  _566
REMARK  230  A    between atoms: _566  and  _567
REMARK  231  A    between atoms: _569  and  _571
REMARK  232  A    between atoms: _571  and  _572
REMARK  233  A    between atoms: _571  and  _574
REMARK  234  A    between atoms: _574  and  _575
REMARK  235  A    between atoms: _580  and  _582
REMARK  236  A    between atoms: _582  and  _583
REMARK  237  A    between atoms: _582  and  _585
REMARK  238  A    between atoms: _585  and  _586
REMARK  239  A    between atoms: _586  and  _587
REMARK  240  A    between atoms: _594  and  _595
REMARK  241  A    between atoms: _595  and  _611
REMARK  242  A    between atoms: _596  and  _598
REMARK  243  A    between atoms: _598  and  _599
REMARK  244  A    between atoms: _599  and  _600
REMARK  245  A    between atoms: _604  and  _606
REMARK  246  A    between atoms: _606  and  _607
REMARK  247  A    between atoms: _606  and  _614
REMARK  248  A    between atoms: _607  and  _608
REMARK  249  A    between atoms: _608  and  _609
REMARK  250  A    between atoms: _609  and  _610
REMARK  251  A    between atoms: _610  and  _611
REMARK  252  A    between atoms: _616  and  _618
REMARK  253  A    between atoms: _618  and  _619
REMARK  254  A    between atoms: _618  and  _621
REMARK  255  A    between atoms: _621  and  _622
REMARK  256  A    between atoms: _625  and  _627
REMARK  257  A    between atoms: _627  and  _628
REMARK  258  A    between atoms: _630  and  _632
REMARK  259  A    between atoms: _632  and  _633
REMARK  260  A    between atoms: _636  and  _638
REMARK  261  A    between atoms: _638  and  _639
REMARK  262  A    between atoms: _638  and  _641
REMARK  263  A    between atoms: _641  and  _642
REMARK  264  A    between atoms: _647  and  _648
REMARK                            x       y       z     vdW  Elec       q    Type
REMARK                         _______ _______ _______ _____ _____    ______ ____
ROOT
ATOM      1  C   ASP A   1      32.361  22.081  15.557  0.00  0.00    +0.239 C 
ATOM      2  N   GLY A   2      33.258  21.522  16.367  0.00  0.00    -0.296 N 
ATOM      3  H   GLY A   2      34.261  21.777  16.260  0.00  0.00    +0.150 HD
ATOM      4  O   ASP A   1      31.155  21.817  15.596  0.00  0.00    -0.274 OA
ENDROOT
BRANCH   1   5
ATOM      5  CA  ASP A   1      32.898  23.091  14.552  0.00  0.00    +0.156 C 
BRANCH   5   6
ATOM      6  N   ASP A   1      32.130  23.030  13.314  0.00  0.00    -0.238 NA
ATOM      7  H   ASP A   1      31.094  22.965  13.371  0.00  0.00    +0.142 HD
ENDBRANCH   5   6
BRANCH   5   8
ATOM      8  CB  ASP A   1      32.832  24.502  15.153  0.00  0.00    +0.140 C 
BRANCH   8   9
ATOM      9  CG  ASP A   1      33.943  24.761  16.162  0.00  0.00    +0.367 C 
ATOM     10  OD2 ASP A   1      33.789  25.678  16.989  0.00  0.00    -0.246 OA
ATOM     11  OD1 ASP A   1      34.968  24.052  16.123  0.00  0.00    -0.246 OA
ENDBRANCH   8   9
ENDBRANCH   5   8
ENDBRANCH   1   5
BRANCH   2  12
ATOM     12  CA  GLY A   2      32.880  20.563  17.400  0.00  0.00    +0.176 C 
BRANCH  12  13
ATOM     13  C   GLY A   2      32.023  19.430  16.876  0.00  0.00    +0.243 C 
ATOM     14  N   ALA A   3      30.975  19.104  17.624  0.00  0.00    -0.298 N 
ATOM     15  H   ALA A   3      30.793  19.633  18.501  0.00  0.00    +0.150 HD
ATOM     16  O   GLY A   2      32.292  18.876  15.807  0.00  0.00    -0.273 OA
BRANCH  14  17
ATOM     17  CA  ALA A   3      30.071  18.020  17.245  0.00  0.00    +0.137 C 
ATOM     18  CB  ALA A   3      29.321  17.503  18.461  0.00  0.00    +0.030 C 
BRANCH  17  19
ATOM     19  C   ALA A   3      29.096  18.406  16.127  0.00  0.00    +0.227 C 
ATOM     20  O   ALA A   3      28.419  17.533  15.574  0.00  0.00    -0.286 OA
ENDBRANCH  17  19
ENDBRANCH  14  17
ENDBRANCH  12  13
ENDBRANCH   2  12
TORSDOF 8
REMARK  Name = ../refined-set-2016/2qrq/2qrq_pocket.pdb
REMARK  264 active torsions:
REMARK  status: ('A' for Active; 'I' for Inactive)
REMARK    1  A    between atoms: _1  and  _3
REMARK    2  A    between atoms: _3  and  _4
REMARK    3  A    between atoms: _3  and  _6
REMARK    4  A    between atoms: _6  and  _7
REMARK    5  A    between atoms: _12  and  _13
REMARK    6  A    between atoms: _15  and  _17
REMARK    7  A    between atoms: _17  and  _18
REMARK    8  A    between atoms: _17  and  _20
REMARK    9  A    between atoms: _20  and  _21
REMARK   10  A    between atoms: _24  and  _26
REMARK   11  A    between atoms: _26  and  _27
REMARK   12  A    between atoms: _26  and  _29
REMARK   13  A    between atoms: _29  and  _30
REMARK   14  A    between atoms: _30  and  _31
REMARK   15  A    between atoms: _34  and  _36
REMARK   16  A    between atoms: _36  and  _37
REMARK   17  A    between atoms: _39  and  _41
REMARK   18  A    between atoms: _41  and  _42
REMARK   19  A    between atoms: _41  and  _44
REMARK   20  A    between atoms: _44  and  _45
REMARK   21  A    between atoms: _50  and  _52
REMARK   22  A    between atoms: _52  and  _53
REMARK   23  A    between atoms: _55  and  _57
REMARK   24  A    between atoms: _57  and  _58
REMARK   25  A    between atoms: _60  and  _62
REMARK   26  A    between atoms: _62  and  _63
REMARK   27  A    between atoms: _62  and  _65
REMARK   28  A    between atoms: _65  and  _66
REMARK   29  A    between atoms: _69  and  _71
REMARK   30  A    between atoms: _71  and  _72
REMARK   31  A    between atoms: _74  and  _76
REMARK   32  A    between atoms: _76  and  _77
REMARK   33  A    between atoms: _76  and  _79
REMARK   34  A    between atoms: _79  and  _80
REMARK   35  A    between atoms: _80  and  _81
REMARK   36  A    between atoms: _81  and  _82
REMARK   37  A    between atoms: _91  and  _93
REMARK   38  A    between atoms: _93  and  _94
REMARK   39  A    between atoms: _93  and  _96
REMARK   40  A    between atoms: _96  and  _97
REMARK   41  A    between atoms: _100  and  _102
REMARK   42  A    between atoms: _102  and  _103
REMARK   43  A    between atoms: _106  and  _108
REMARK   44  A    between atoms: _108  and  _109
REMARK   45  A    between atoms: _108  and  _111
REMARK   46  A    between atoms: _111  and  _112
REMARK   47  A    between atoms: _118  and  _120
REMARK   48  A    between atoms: _120  and  _121
REMARK   49  A    between atoms: _120  and  _123
REMARK   50  A    between atoms: _123  and  _124
REMARK   51  A    between atoms: _127  and  _129
REMARK   52  A    between atoms: _129  and  _130
REMARK   53  A    between atoms: _129  and  _132
REMARK   54  A    between atoms: _132  and  _133
REMARK   55  A    between atoms: _138  and  _139
REMARK   56  A    between atoms: _142  and  _143
REMARK   57  A    between atoms: _148  and  _150
REMARK   58  A    between atoms: _150  and  _151
REMARK   59  A    between atoms: _150  and  _153
REMARK   60  A    between atoms: _153  and  _154
REMARK   61  A    between atoms: _159  and  _161
REMARK   62  A    between atoms: _161  and  _162
REMARK   63  A    between atoms: _161  and  _164
REMARK   64  A    between atoms: _164  and  _165
REMARK   65  A    between atoms: _168  and  _170
REMARK   66  A    between atoms: _170  and  _171
REMARK   67  A    between atoms: _170  and  _173
REMARK   68  A    between atoms: _173  and  _174
REMARK   69  A    between atoms: _179  and  _181
REMARK   70  A    between atoms: _181  and  _182
REMARK   71  A    between atoms: _181  and  _184
REMARK   72  A    between atoms: _184  and  _185
REMARK   73  A    between atoms: _191  and  _193
REMARK   74  A    between atoms: _193  and  _194
REMARK   75  A    between atoms: _193  and  _196
REMARK   76  A    between atoms: _196  and  _197
REMARK   77  A    between atoms: _203  and  _205
REMARK   78  A    between atoms: _205  and  _206
REMARK   79  A    between atoms: _205  and  _208
REMARK   80  A    between atoms: _208  and  _209
REMARK   81  A    between atoms: _209  and  _210
REMARK   82  A    between atoms: _213  and  _215
REMARK   83  A    between atoms: _215  and  _216
REMARK   84  A    between atoms: _215  and  _218
REMARK   85  A    between atoms: _218  and  _219
REMARK   86  A    between atoms: _219  and  _220
REMARK   87  A    between atoms: _220  and  _221
REMARK   88  A    between atoms: _230  and  _232
REMARK   89  A    between atoms: _232  and  _233
REMARK   90  A    between atoms: _232  and  _235
REMARK   91  A    between atoms: _235  and  _236
REMARK   92  A    between atoms: _236  and  _237
REMARK   93  A    between atoms: _240  and  _242
REMARK   94  A    between atoms: _242  and  _243
REMARK   95  A    between atoms: _242  and  _245
REMARK   96  A    between atoms: _245  and  _246
REMARK   97  A    between atoms: _251  and  _253
REMARK   98  A    between atoms: _253  and  _254
REMARK   99  A    between atoms: _253  and  _256
REMARK  100  A    between atoms: _256  and  _257
REMARK  101  A    between atoms: _260  and  _262
REMARK  102  A    between atoms: _262  and  _263
REMARK  103  A    between atoms: _262  and  _265
REMARK  104  A    between atoms: _265  and  _266
REMARK  105  A    between atoms: _269  and  _271
REMARK  106  A    between atoms: _271  and  _272
REMARK  107  A    between atoms: _271  and  _274
REMARK  108  A    between atoms: _274  and  _275
REMARK  109  A    between atoms: _280  and  _282
REMARK  110  A    between atoms: _282  and  _283
REMARK  111  A    between atoms: _282  and  _285
REMARK  112  A    between atoms: _285  and  _286
REMARK  113  A    between atoms: _289  and  _291
REMARK  114  A    between atoms: _291  and  _292
REMARK  115  A    between atoms: _291  and  _294
REMARK  116  A    between atoms: _294  and  _295
REMARK  117  A    between atoms: _300  and  _302
REMARK  118  A    between atoms: _302  and  _303
REMARK  119  A    between atoms: _302  and  _305
REMARK  120  A    between atoms: _305  and  _306
REMARK  121  A    between atoms: _311  and  _313
REMARK  122  A    between atoms: _313  and  _314
REMARK  123  A    between atoms: _313  and  _316
REMARK  124  A    between atoms: _316  and  _317
REMARK  125  A    between atoms: _320  and  _322
REMARK  126  A    between atoms: _322  and  _323
REMARK  127  A    between atoms: _322  and  _325
REMARK  128  A    between atoms: _328  and  _330
REMARK  129  A    between atoms: _330  and  _331
REMARK  130  A    between atoms: _330  and  _333
REMARK  131  A    between atoms: _333  and  _334
REMARK  132  A    between atoms: _337  and  _339
REMARK  133  A    between atoms: _339  and  _340
REMARK  134  A    between atoms: _343  and  _345
REMARK  135  A    between atoms: _345  and  _346
REMARK  136  A    between atoms: _345  and  _348
REMARK  137  A    between atoms: _348  and  _349
REMARK  138  A    between atoms: _352  and  _354
REMARK  139  A    between atoms: _354  and  _355
REMARK  140  A    between atoms: _354  and  _357
REMARK  141  A    between atoms: _357  and  _358
REMARK  142  A    between atoms: _358  and  _359
REMARK  143  A    between atoms: _362  and  _364
REMARK  144  A    between atoms: _364  and  _365
REMARK  145  A    between atoms: _364  and  _367
REMARK  146  A    between atoms: _367  and  _368
REMARK  147  A    between atoms: _373  and  _375
REMARK  148  A    between atoms: _375  and  _376
REMARK  149  A    between atoms: _378  and  _380
REMARK  150  A    between atoms: _380  and  _381
REMARK  151  A    between atoms: _380  and  _383
REMARK  152  A    between atoms: _386  and  _388
REMARK  153  A    between atoms: _388  and  _389
REMARK  154  A    between atoms: _392  and  _394
REMARK  155  A    between atoms: _394  and  _395
REMARK  156  A    between atoms: _394  and  _397
REMARK  157  A    between atoms: _397  and  _398
REMARK  158  A    between atoms: _403  and  _405
REMARK  159  A    between atoms: _405  and  _406
REMARK  160  A    between atoms: _405  and  _408
REMARK  161  A    between atoms: _408  and  _409
REMARK  162  A    between atoms: _409  and  _410
REMARK  163  A    between atoms: _410  and  _411
REMARK  164  A    between atoms: _411  and  _412
REMARK  165  A    between atoms: _416  and  _418
REMARK  166  A    between atoms: _418  and  _419
REMARK  167  A    between atoms: _418  and  _421
REMARK  168  A    between atoms: _421  and  _422
REMARK  169  A    between atoms: _425  and  _427
REMARK  170  A    between atoms: _427  and  _428
REMARK  171  A    between atoms: _427  and  _430
REMARK  172  A    between atoms: _430  and  _431
REMARK  173  A    between atoms: _436  and  _438
REMARK  174  A    between atoms: _438  and  _439
REMARK  175  A    between atoms: _441  and  _443
REMARK  176  A    between atoms: _443  and  _444
REMARK  177  A    between atoms: _443  and  _446
REMARK  178  A    between atoms: _446  and  _447
REMARK  179  A    between atoms: _447  and  _448
REMARK  180  A    between atoms: _448  and  _449
REMARK  181  A    between atoms: _449  and  _450
REMARK  182  A    between atoms: _454  and  _456
REMARK  183  A    between atoms: _456  and  _457
REMARK  184  A    between atoms: _456  and  _459
REMARK  185  A    between atoms: _459  and  _460
REMARK  186  A    between atoms: _460  and  _461
REMARK  187  A    between atoms: _461  and  _462
REMARK  188  A    between atoms: _471  and  _473
REMARK  189  A    between atoms: _473  and  _474
REMARK  190  A    between atoms: _473  and  _476
REMARK  191  A    between atoms: _476  and  _477
REMARK  192  A    between atoms: _482  and  _484
REMARK  193  A    between atoms: _484  and  _485
REMARK  194  A    between atoms: _484  and  _487
REMARK  195  A    between atoms: _487  and  _488
REMARK  196  A    between atoms: _493  and  _494
REMARK  197  A    between atoms: _496  and  _498
REMARK  198  A    between atoms: _498  and  _499
REMARK  199  A    between atoms: _498  and  _501
REMARK  200  A    between atoms: _501  and  _502
REMARK  201  A    between atoms: _502  and  _503
REMARK  202  A    between atoms: _503  and  _504
REMARK  203  A    between atoms: _504  and  _505
REMARK  204  A    between atoms: _509  and  _511
REMARK  205  A    between atoms: _511  and  _512
REMARK  206  A    between atoms: _511  and  _514
REMARK  207  A    between atoms: _514  and  _515
REMARK  208  A    between atoms: _517  and  _519
REMARK  209  A    between atoms: _519  and  _520
REMARK  210  A    between atoms: _519  and  _522
REMARK  211  A    between atoms: _522  and  _523
REMARK  212  A    between atoms: _526  and  _528
REMARK  213  A    between atoms: _528  and  _529
REMARK  214  A    between atoms: _528  and  _531
REMARK  215  A    between atoms: _531  and  _532
REMARK  216  A    between atoms: _532  and  _533
REMARK  217  A    between atoms: _536  and  _538
REMARK  218  A    between atoms: _538  and  _539
REMARK  219  A    between atoms: _542  and  _544
REMARK  220  A    between atoms: _544  and  _545
REMARK  221  A    between atoms: _544  and  _547
REMARK  222  A    between atoms: _547  and  _548
REMARK  223  A    between atoms: _550  and  _552
REMARK  224  A    between atoms: _552  and  _553
REMARK  225  A    between atoms: _555  and  _557
REMARK  226  A    between atoms: _557  and  _558
REMARK  227  A    between atoms: _557  and  _560
REMARK  228  A    between atoms: _560  and  _561
REMARK  229  A    between atoms: _564  and  _566
REMARK  230  A    between atoms: _566  and  _567
REMARK  231  A    between atoms: _569  and  _571
REMARK  232  A    between atoms: _571  and  _572
REMARK  233  A    between atoms: _571  and  _574
REMARK  234  A    between atoms: _574  and  _575
REMARK  235  A    between atoms: _580  and  _582
REMARK  236  A    between atoms: _582  and  _583
REMARK  237  A    between atoms: _582  and  _585
REMARK  238  A    between atoms: _585  and  _586
REMARK  239  A    between atoms: _586  and  _587
REMARK  240  A    between atoms: _594  and  _595
REMARK  241  A    between atoms: _595  and  _611
REMARK  242  A    between atoms: _596  and  _598
REMARK  243  A    between atoms: _598  and  _599
REMARK  244  A    between atoms: _599  and  _600
REMARK  245  A    between atoms: _604  and  _606
REMARK  246  A    between atoms: _606  and  _607
REMARK  247  A    between atoms: _606  and  _614
REMARK  248  A    between atoms: _607  and  _608
REMARK  249  A    between atoms: _608  and  _609
REMARK  250  A    between atoms: _609  and  _610
REMARK  251  A    between atoms: _610  and  _611
REMARK  252  A    between atoms: _616  and  _618
REMARK  253  A    between atoms: _618  and  _619
REMARK  254  A    between atoms: _618  and  _621
REMARK  255  A    between atoms: _621  and  _622
REMARK  256  A    between atoms: _625  and  _627
REMARK  257  A    between atoms: _627  and  _628
REMARK  258  A    between atoms: _630  and  _632
REMARK  259  A    between atoms: _632  and  _633
REMARK  260  A    between atoms: _636  and  _638
REMARK  261  A    between atoms: _638  and  _639
REMARK  262  A    between atoms: _638  and  _641
REMARK  263  A    between atoms: _641  and  _642
REMARK  264  A    between atoms: _647  and  _648
REMARK                            x       y       z     vdW  Elec       q    Type
REMARK                         _______ _______ _______ _____ _____    ______ ____
ROOT
ATOM      1  CG  TYR A   1      33.896   7.502  28.413  0.00  0.00    -0.020 A 
ATOM      2  CD2 TYR A   1      35.074   8.065  28.905  0.00  0.00    -0.001 A 
ATOM      3  CE2 TYR A   1      35.382   9.407  28.679  0.00  0.00    +0.036 A 
ATOM      4  CZ  TYR A   1      34.503  10.199  27.961  0.00  0.00    +0.134 A 
ATOM      5  CE1 TYR A   1      33.321   9.666  27.468  0.00  0.00    +0.036 A 
ATOM      6  CD1 TYR A   1      33.025   8.319  27.695  0.00  0.00    -0.001 A 
ENDROOT
BRANCH   4   7
ATOM      7  OH  TYR A   1      34.798  11.525  27.738  0.00  0.00    -0.506 OA
ATOM      8  HH  TYR A   1      34.844  11.692  26.763  0.00  0.00    +0.292 HD
ENDBRANCH   4   7
BRANCH   1   9
ATOM      9  CB  TYR A   1      33.561   6.052  28.675  0.00  0.00    +0.051 C 
BRANCH   9  10
ATOM     10  CA  TYR A   1      34.115   5.054  27.655  0.00  0.00    +0.137 C 
BRANCH  10  11
ATOM     11  N   TYR A   1      33.212   4.918  26.507  0.00  0.00    -0.239 NA
ATOM     12  H   TYR A   1      32.379   5.536  26.436  0.00  0.00    +0.142 HD
ENDBRANCH  10  11
BRANCH  10  13
ATOM     13  C   TYR A   1      34.315   3.703  28.350  0.00  0.00    +0.224 C 
ATOM     14  O   TYR A   1      35.435   3.316  28.668  0.00  0.00    -0.287 OA
ENDBRANCH  10  13
ENDBRANCH   9  10
ENDBRANCH   1   9
TORSDOF 5
REMARK  Name = ../refined-set-2016/2qrq/2qrq_pocket.pdb
REMARK  264 active torsions:
REMARK  status: ('A' for Active; 'I' for Inactive)
REMARK    1  A    between atoms: _1  and  _3
REMARK    2  A    between atoms: _3  and  _4
REMARK    3  A    between atoms: _3  and  _6
REMARK    4  A    between atoms: _6  and  _7
REMARK    5  A    between atoms: _12  and  _13
REMARK    6  A    between atoms: _15  and  _17
REMARK    7  A    between atoms: _17  and  _18
REMARK    8  A    between atoms: _17  and  _20
REMARK    9  A    between atoms: _20  and  _21
REMARK   10  A    between atoms: _24  and  _26
REMARK   11  A    between atoms: _26  and  _27
REMARK   12  A    between atoms: _26  and  _29
REMARK   13  A    between atoms: _29  and  _30
REMARK   14  A    between atoms: _30  and  _31
REMARK   15  A    between atoms: _34  and  _36
REMARK   16  A    between atoms: _36  and  _37
REMARK   17  A    between atoms: _39  and  _41
REMARK   18  A    between atoms: _41  and  _42
REMARK   19  A    between atoms: _41  and  _44
REMARK   20  A    between atoms: _44  and  _45
REMARK   21  A    between atoms: _50  and  _52
REMARK   22  A    between atoms: _52  and  _53
REMARK   23  A    between atoms: _55  and  _57
REMARK   24  A    between atoms: _57  and  _58
REMARK   25  A    between atoms: _60  and  _62
REMARK   26  A    between atoms: _62  and  _63
REMARK   27  A    between atoms: _62  and  _65
REMARK   28  A    between atoms: _65  and  _66
REMARK   29  A    between atoms: _69  and  _71
REMARK   30  A    between atoms: _71  and  _72
REMARK   31  A    between atoms: _74  and  _76
REMARK   32  A    between atoms: _76  and  _77
REMARK   33  A    between atoms: _76  and  _79
REMARK   34  A    between atoms: _79  and  _80
REMARK   35  A    between atoms: _80  and  _81
REMARK   36  A    between atoms: _81  and  _82
REMARK   37  A    between atoms: _91  and  _93
REMARK   38  A    between atoms: _93  and  _94
REMARK   39  A    between atoms: _93  and  _96
REMARK   40  A    between atoms: _96  and  _97
REMARK   41  A    between atoms: _100  and  _102
REMARK   42  A    between atoms: _102  and  _103
REMARK   43  A    between atoms: _106  and  _108
REMARK   44  A    between atoms: _108  and  _109
REMARK   45  A    between atoms: _108  and  _111
REMARK   46  A    between atoms: _111  and  _112
REMARK   47  A    between atoms: _118  and  _120
REMARK   48  A    between atoms: _120  and  _121
REMARK   49  A    between atoms: _120  and  _123
REMARK   50  A    between atoms: _123  and  _124
REMARK   51  A    between atoms: _127  and  _129
REMARK   52  A    between atoms: _129  and  _130
REMARK   53  A    between atoms: _129  and  _132
REMARK   54  A    between atoms: _132  and  _133
REMARK   55  A    between atoms: _138  and  _139
REMARK   56  A    between atoms: _142  and  _143
REMARK   57  A    between atoms: _148  and  _150
REMARK   58  A    between atoms: _150  and  _151
REMARK   59  A    between atoms: _150  and  _153
REMARK   60  A    between atoms: _153  and  _154
REMARK   61  A    between atoms: _159  and  _161
REMARK   62  A    between atoms: _161  and  _162
REMARK   63  A    between atoms: _161  and  _164
REMARK   64  A    between atoms: _164  and  _165
REMARK   65  A    between atoms: _168  and  _170
REMARK   66  A    between atoms: _170  and  _171
REMARK   67  A    between atoms: _170  and  _173
REMARK   68  A    between atoms: _173  and  _174
REMARK   69  A    between atoms: _179  and  _181
REMARK   70  A    between atoms: _181  and  _182
REMARK   71  A    between atoms: _181  and  _184
REMARK   72  A    between atoms: _184  and  _185
REMARK   73  A    between atoms: _191  and  _193
REMARK   74  A    between atoms: _193  and  _194
REMARK   75  A    between atoms: _193  and  _196
REMARK   76  A    between atoms: _196  and  _197
REMARK   77  A    between atoms: _203  and  _205
REMARK   78  A    between atoms: _205  and  _206
REMARK   79  A    between atoms: _205  and  _208
REMARK   80  A    between atoms: _208  and  _209
REMARK   81  A    between atoms: _209  and  _210
REMARK   82  A    between atoms: _213  and  _215
REMARK   83  A    between atoms: _215  and  _216
REMARK   84  A    between atoms: _215  and  _218
REMARK   85  A    between atoms: _218  and  _219
REMARK   86  A    between atoms: _219  and  _220
REMARK   87  A    between atoms: _220  and  _221
REMARK   88  A    between atoms: _230  and  _232
REMARK   89  A    between atoms: _232  and  _233
REMARK   90  A    between atoms: _232  and  _235
REMARK   91  A    between atoms: _235  and  _236
REMARK   92  A    between atoms: _236  and  _237
REMARK   93  A    between atoms: _240  and  _242
REMARK   94  A    between atoms: _242  and  _243
REMARK   95  A    between atoms: _242  and  _245
REMARK   96  A    between atoms: _245  and  _246
REMARK   97  A    between atoms: _251  and  _253
REMARK   98  A    between atoms: _253  and  _254
REMARK   99  A    between atoms: _253  and  _256
REMARK  100  A    between atoms: _256  and  _257
REMARK  101  A    between atoms: _260  and  _262
REMARK  102  A    between atoms: _262  and  _263
REMARK  103  A    between atoms: _262  and  _265
REMARK  104  A    between atoms: _265  and  _266
REMARK  105  A    between atoms: _269  and  _271
REMARK  106  A    between atoms: _271  and  _272
REMARK  107  A    between atoms: _271  and  _274
REMARK  108  A    between atoms: _274  and  _275
REMARK  109  A    between atoms: _280  and  _282
REMARK  110  A    between atoms: _282  and  _283
REMARK  111  A    between atoms: _282  and  _285
REMARK  112  A    between atoms: _285  and  _286
REMARK  113  A    between atoms: _289  and  _291
REMARK  114  A    between atoms: _291  and  _292
REMARK  115  A    between atoms: _291  and  _294
REMARK  116  A    between atoms: _294  and  _295
REMARK  117  A    between atoms: _300  and  _302
REMARK  118  A    between atoms: _302  and  _303
REMARK  119  A    between atoms: _302  and  _305
REMARK  120  A    between atoms: _305  and  _306
REMARK  121  A    between atoms: _311  and  _313
REMARK  122  A    between atoms: _313  and  _314
REMARK  123  A    between atoms: _313  and  _316
REMARK  124  A    between atoms: _316  and  _317
REMARK  125  A    between atoms: _320  and  _322
REMARK  126  A    between atoms: _322  and  _323
REMARK  127  A    between atoms: _322  and  _325
REMARK  128  A    between atoms: _328  and  _330
REMARK  129  A    between atoms: _330  and  _331
REMARK  130  A    between atoms: _330  and  _333
REMARK  131  A    between atoms: _333  and  _334
REMARK  132  A    between atoms: _337  and  _339
REMARK  133  A    between atoms: _339  and  _340
REMARK  134  A    between atoms: _343  and  _345
REMARK  135  A    between atoms: _345  and  _346
REMARK  136  A    between atoms: _345  and  _348
REMARK  137  A    between atoms: _348  and  _349
REMARK  138  A    between atoms: _352  and  _354
REMARK  139  A    between atoms: _354  and  _355
REMARK  140  A    between atoms: _354  and  _357
REMARK  141  A    between atoms: _357  and  _358
REMARK  142  A    between atoms: _358  and  _359
REMARK  143  A    between atoms: _362  and  _364
REMARK  144  A    between atoms: _364  and  _365
REMARK  145  A    between atoms: _364  and  _367
REMARK  146  A    between atoms: _367  and  _368
REMARK  147  A    between atoms: _373  and  _375
REMARK  148  A    between atoms: _375  and  _376
REMARK  149  A    between atoms: _378  and  _380
REMARK  150  A    between atoms: _380  and  _381
REMARK  151  A    between atoms: _380  and  _383
REMARK  152  A    between atoms: _386  and  _388
REMARK  153  A    between atoms: _388  and  _389
REMARK  154  A    between atoms: _392  and  _394
REMARK  155  A    between atoms: _394  and  _395
REMARK  156  A    between atoms: _394  and  _397
REMARK  157  A    between atoms: _397  and  _398
REMARK  158  A    between atoms: _403  and  _405
REMARK  159  A    between atoms: _405  and  _406
REMARK  160  A    between atoms: _405  and  _408
REMARK  161  A    between atoms: _408  and  _409
REMARK  162  A    between atoms: _409  and  _410
REMARK  163  A    between atoms: _410  and  _411
REMARK  164  A    between atoms: _411  and  _412
REMARK  165  A    between atoms: _416  and  _418
REMARK  166  A    between atoms: _418  and  _419
REMARK  167  A    between atoms: _418  and  _421
REMARK  168  A    between atoms: _421  and  _422
REMARK  169  A    between atoms: _425  and  _427
REMARK  170  A    between atoms: _427  and  _428
REMARK  171  A    between atoms: _427  and  _430
REMARK  172  A    between atoms: _430  and  _431
REMARK  173  A    between atoms: _436  and  _438
REMARK  174  A    between atoms: _438  and  _439
REMARK  175  A    between atoms: _441  and  _443
REMARK  176  A    between atoms: _443  and  _444
REMARK  177  A    between atoms: _443  and  _446
REMARK  178  A    between atoms: _446  and  _447
REMARK  179  A    between atoms: _447  and  _448
REMARK  180  A    between atoms: _448  and  _449
REMARK  181  A    between atoms: _449  and  _450
REMARK  182  A    between atoms: _454  and  _456
REMARK  183  A    between atoms: _456  and  _457
REMARK  184  A    between atoms: _456  and  _459
REMARK  185  A    between atoms: _459  and  _460
REMARK  186  A    between atoms: _460  and  _461
REMARK  187  A    between atoms: _461  and  _462
REMARK  188  A    between atoms: _471  and  _473
REMARK  189  A    between atoms: _473  and  _474
REMARK  190  A    between atoms: _473  and  _476
REMARK  191  A    between atoms: _476  and  _477
REMARK  192  A    between atoms: _482  and  _484
REMARK  193  A    between atoms: _484  and  _485
REMARK  194  A    between atoms: _484  and  _487
REMARK  195  A    between atoms: _487  and  _488
REMARK  196  A    between atoms: _493  and  _494
REMARK  197  A    between atoms: _496  and  _498
REMARK  198  A    between atoms: _498  and  _499
REMARK  199  A    between atoms: _498  and  _501
REMARK  200  A    between atoms: _501  and  _502
REMARK  201  A    between atoms: _502  and  _503
REMARK  202  A    between atoms: _503  and  _504
REMARK  203  A    between atoms: _504  and  _505
REMARK  204  A    between atoms: _509  and  _511
REMARK  205  A    between atoms: _511  and  _512
REMARK  206  A    between atoms: _511  and  _514
REMARK  207  A    between atoms: _514  and  _515
REMARK  208  A    between atoms: _517  and  _519
REMARK  209  A    between atoms: _519  and  _520
REMARK  210  A    between atoms: _519  and  _522
REMARK  211  A    between atoms: _522  and  _523
REMARK  212  A    between atoms: _526  and  _528
REMARK  213  A    between atoms: _528  and  _529
REMARK  214  A    between atoms: _528  and  _531
REMARK  215  A    between atoms: _531  and  _532
REMARK  216  A    between atoms: _532  and  _533
REMARK  217  A    between atoms: _536  and  _538
REMARK  218  A    between atoms: _538  and  _539
REMARK  219  A    between atoms: _542  and  _544
REMARK  220  A    between atoms: _544  and  _545
REMARK  221  A    between atoms: _544  and  _547
REMARK  222  A    between atoms: _547  and  _548
REMARK  223  A    between atoms: _550  and  _552
REMARK  224  A    between atoms: _552  and  _553
REMARK  225  A    between atoms: _555  and  _557
REMARK  226  A    between atoms: _557  and  _558
REMARK  227  A    between atoms: _557  and  _560
REMARK  228  A    between atoms: _560  and  _561
REMARK  229  A    between atoms: _564  and  _566
REMARK  230  A    between atoms: _566  and  _567
REMARK  231  A    between atoms: _569  and  _571
REMARK  232  A    between atoms: _571  and  _572
REMARK  233  A    between atoms: _571  and  _574
REMARK  234  A    between atoms: _574  and  _575
REMARK  235  A    between atoms: _580  and  _582
REMARK  236  A    between atoms: _582  and  _583
REMARK  237  A    between atoms: _582  and  _585
REMARK  238  A    between atoms: _585  and  _586
REMARK  239  A    between atoms: _586  and  _587
REMARK  240  A    between atoms: _594  and  _595
REMARK  241  A    between atoms: _595  and  _611
REMARK  242  A    between atoms: _596  and  _598
REMARK  243  A    between atoms: _598  and  _599
REMARK  244  A    between atoms: _599  and  _600
REMARK  245  A    between atoms: _604  and  _606
REMARK  246  A    between atoms: _606  and  _607
REMARK  247  A    between atoms: _606  and  _614
REMARK  248  A    between atoms: _607  and  _608
REMARK  249  A    between atoms: _608  and  _609
REMARK  250  A    between atoms: _609  and  _610
REMARK  251  A    between atoms: _610  and  _611
REMARK  252  A    between atoms: _616  and  _618
REMARK  253  A    between atoms: _618  and  _619
REMARK  254  A    between atoms: _618  and  _621
REMARK  255  A    between atoms: _621  and  _622
REMARK  256  A    between atoms: _625  and  _627
REMARK  257  A    between atoms: _627  and  _628
REMARK  258  A    between atoms: _630  and  _632
REMARK  259  A    between atoms: _632  and  _633
REMARK  260  A    between atoms: _636  and  _638
REMARK  261  A    between atoms: _638  and  _639
REMARK  262  A    between atoms: _638  and  _641
REMARK  263  A    between atoms: _641  and  _642
REMARK  264  A    between atoms: _647  and  _648
REMARK                            x       y       z     vdW  Elec       q    Type
REMARK                         _______ _______ _______ _____ _____    ______ ____
ROOT
ATOM      1  O   HOH     1      34.897  25.911  41.697  0.00  0.00    +0.000 OA
ENDROOT
TORSDOF 0
REMARK  Name = ../refined-set-2016/2qrq/2qrq_pocket.pdb
REMARK  264 active torsions:
REMARK  status: ('A' for Active; 'I' for Inactive)
REMARK    1  A    between atoms: _1  and  _3
REMARK    2  A    between atoms: _3  and  _4
REMARK    3  A    between atoms: _3  and  _6
REMARK    4  A    between atoms: _6  and  _7
REMARK    5  A    between atoms: _12  and  _13
REMARK    6  A    between atoms: _15  and  _17
REMARK    7  A    between atoms: _17  and  _18
REMARK    8  A    between atoms: _17  and  _20
REMARK    9  A    between atoms: _20  and  _21
REMARK   10  A    between atoms: _24  and  _26
REMARK   11  A    between atoms: _26  and  _27
REMARK   12  A    between atoms: _26  and  _29
REMARK   13  A    between atoms: _29  and  _30
REMARK   14  A    between atoms: _30  and  _31
REMARK   15  A    between atoms: _34  and  _36
REMARK   16  A    between atoms: _36  and  _37
REMARK   17  A    between atoms: _39  and  _41
REMARK   18  A    between atoms: _41  and  _42
REMARK   19  A    between atoms: _41  and  _44
REMARK   20  A    between atoms: _44  and  _45
REMARK   21  A    between atoms: _50  and  _52
REMARK   22  A    between atoms: _52  and  _53
REMARK   23  A    between atoms: _55  and  _57
REMARK   24  A    between atoms: _57  and  _58
REMARK   25  A    between atoms: _60  and  _62
REMARK   26  A    between atoms: _62  and  _63
REMARK   27  A    between atoms: _62  and  _65
REMARK   28  A    between atoms: _65  and  _66
REMARK   29  A    between atoms: _69  and  _71
REMARK   30  A    between atoms: _71  and  _72
REMARK   31  A    between atoms: _74  and  _76
REMARK   32  A    between atoms: _76  and  _77
REMARK   33  A    between atoms: _76  and  _79
REMARK   34  A    between atoms: _79  and  _80
REMARK   35  A    between atoms: _80  and  _81
REMARK   36  A    between atoms: _81  and  _82
REMARK   37  A    between atoms: _91  and  _93
REMARK   38  A    between atoms: _93  and  _94
REMARK   39  A    between atoms: _93  and  _96
REMARK   40  A    between atoms: _96  and  _97
REMARK   41  A    between atoms: _100  and  _102
REMARK   42  A    between atoms: _102  and  _103
REMARK   43  A    between atoms: _106  and  _108
REMARK   44  A    between atoms: _108  and  _109
REMARK   45  A    between atoms: _108  and  _111
REMARK   46  A    between atoms: _111  and  _112
REMARK   47  A    between atoms: _118  and  _120
REMARK   48  A    between atoms: _120  and  _121
REMARK   49  A    between atoms: _120  and  _123
REMARK   50  A    between atoms: _123  and  _124
REMARK   51  A    between atoms: _127  and  _129
REMARK   52  A    between atoms: _129  and  _130
REMARK   53  A    between atoms: _129  and  _132
REMARK   54  A    between atoms: _132  and  _133
REMARK   55  A    between atoms: _138  and  _139
REMARK   56  A    between atoms: _142  and  _143
REMARK   57  A    between atoms: _148  and  _150
REMARK   58  A    between atoms: _150  and  _151
REMARK   59  A    between atoms: _150  and  _153
REMARK   60  A    between atoms: _153  and  _154
REMARK   61  A    between atoms: _159  and  _161
REMARK   62  A    between atoms: _161  and  _162
REMARK   63  A    between atoms: _161  and  _164
REMARK   64  A    between atoms: _164  and  _165
REMARK   65  A    between atoms: _168  and  _170
REMARK   66  A    between atoms: _170  and  _171
REMARK   67  A    between atoms: _170  and  _173
REMARK   68  A    between atoms: _173  and  _174
REMARK   69  A    between atoms: _179  and  _181
REMARK   70  A    between atoms: _181  and  _182
REMARK   71  A    between atoms: _181  and  _184
REMARK   72  A    between atoms: _184  and  _185
REMARK   73  A    between atoms: _191  and  _193
REMARK   74  A    between atoms: _193  and  _194
REMARK   75  A    between atoms: _193  and  _196
REMARK   76  A    between atoms: _196  and  _197
REMARK   77  A    between atoms: _203  and  _205
REMARK   78  A    between atoms: _205  and  _206
REMARK   79  A    between atoms: _205  and  _208
REMARK   80  A    between atoms: _208  and  _209
REMARK   81  A    between atoms: _209  and  _210
REMARK   82  A    between atoms: _213  and  _215
REMARK   83  A    between atoms: _215  and  _216
REMARK   84  A    between atoms: _215  and  _218
REMARK   85  A    between atoms: _218  and  _219
REMARK   86  A    between atoms: _219  and  _220
REMARK   87  A    between atoms: _220  and  _221
REMARK   88  A    between atoms: _230  and  _232
REMARK   89  A    between atoms: _232  and  _233
REMARK   90  A    between atoms: _232  and  _235
REMARK   91  A    between atoms: _235  and  _236
REMARK   92  A    between atoms: _236  and  _237
REMARK   93  A    between atoms: _240  and  _242
REMARK   94  A    between atoms: _242  and  _243
REMARK   95  A    between atoms: _242  and  _245
REMARK   96  A    between atoms: _245  and  _246
REMARK   97  A    between atoms: _251  and  _253
REMARK   98  A    between atoms: _253  and  _254
REMARK   99  A    between atoms: _253  and  _256
REMARK  100  A    between atoms: _256  and  _257
REMARK  101  A    between atoms: _260  and  _262
REMARK  102  A    between atoms: _262  and  _263
REMARK  103  A    between atoms: _262  and  _265
REMARK  104  A    between atoms: _265  and  _266
REMARK  105  A    between atoms: _269  and  _271
REMARK  106  A    between atoms: _271  and  _272
REMARK  107  A    between atoms: _271  and  _274
REMARK  108  A    between atoms: _274  and  _275
REMARK  109  A    between atoms: _280  and  _282
REMARK  110  A    between atoms: _282  and  _283
REMARK  111  A    between atoms: _282  and  _285
REMARK  112  A    between atoms: _285  and  _286
REMARK  113  A    between atoms: _289  and  _291
REMARK  114  A    between atoms: _291  and  _292
REMARK  115  A    between atoms: _291  and  _294
REMARK  116  A    between atoms: _294  and  _295
REMARK  117  A    between atoms: _300  and  _302
REMARK  118  A    between atoms: _302  and  _303
REMARK  119  A    between atoms: _302  and  _305
REMARK  120  A    between atoms: _305  and  _306
REMARK  121  A    between atoms: _311  and  _313
REMARK  122  A    between atoms: _313  and  _314
REMARK  123  A    between atoms: _313  and  _316
REMARK  124  A    between atoms: _316  and  _317
REMARK  125  A    between atoms: _320  and  _322
REMARK  126  A    between atoms: _322  and  _323
REMARK  127  A    between atoms: _322  and  _325
REMARK  128  A    between atoms: _328  and  _330
REMARK  129  A    between atoms: _330  and  _331
REMARK  130  A    between atoms: _330  and  _333
REMARK  131  A    between atoms: _333  and  _334
REMARK  132  A    between atoms: _337  and  _339
REMARK  133  A    between atoms: _339  and  _340
REMARK  134  A    between atoms: _343  and  _345
REMARK  135  A    between atoms: _345  and  _346
REMARK  136  A    between atoms: _345  and  _348
REMARK  137  A    between atoms: _348  and  _349
REMARK  138  A    between atoms: _352  and  _354
REMARK  139  A    between atoms: _354  and  _355
REMARK  140  A    between atoms: _354  and  _357
REMARK  141  A    between atoms: _357  and  _358
REMARK  142  A    between atoms: _358  and  _359
REMARK  143  A    between atoms: _362  and  _364
REMARK  144  A    between atoms: _364  and  _365
REMARK  145  A    between atoms: _364  and  _367
REMARK  146  A    between atoms: _367  and  _368
REMARK  147  A    between atoms: _373  and  _375
REMARK  148  A    between atoms: _375  and  _376
REMARK  149  A    between atoms: _378  and  _380
REMARK  150  A    between atoms: _380  and  _381
REMARK  151  A    between atoms: _380  and  _383
REMARK  152  A    between atoms: _386  and  _388
REMARK  153  A    between atoms: _388  and  _389
REMARK  154  A    between atoms: _392  and  _394
REMARK  155  A    between atoms: _394  and  _395
REMARK  156  A    between atoms: _394  and  _397
REMARK  157  A    between atoms: _397  and  _398
REMARK  158  A    between atoms: _403  and  _405
REMARK  159  A    between atoms: _405  and  _406
REMARK  160  A    between atoms: _405  and  _408
REMARK  161  A    between atoms: _408  and  _409
REMARK  162  A    between atoms: _409  and  _410
REMARK  163  A    between atoms: _410  and  _411
REMARK  164  A    between atoms: _411  and  _412
REMARK  165  A    between atoms: _416  and  _418
REMARK  166  A    between atoms: _418  and  _419
REMARK  167  A    between atoms: _418  and  _421
REMARK  168  A    between atoms: _421  and  _422
REMARK  169  A    between atoms: _425  and  _427
REMARK  170  A    between atoms: _427  and  _428
REMARK  171  A    between atoms: _427  and  _430
REMARK  172  A    between atoms: _430  and  _431
REMARK  173  A    between atoms: _436  and  _438
REMARK  174  A    between atoms: _438  and  _439
REMARK  175  A    between atoms: _441  and  _443
REMARK  176  A    between atoms: _443  and  _444
REMARK  177  A    between atoms: _443  and  _446
REMARK  178  A    between atoms: _446  and  _447
REMARK  179  A    between atoms: _447  and  _448
REMARK  180  A    between atoms: _448  and  _449
REMARK  181  A    between atoms: _449  and  _450
REMARK  182  A    between atoms: _454  and  _456
REMARK  183  A    between atoms: _456  and  _457
REMARK  184  A    between atoms: _456  and  _459
REMARK  185  A    between atoms: _459  and  _460
REMARK  186  A    between atoms: _460  and  _461
REMARK  187  A    between atoms: _461  and  _462
REMARK  188  A    between atoms: _471  and  _473
REMARK  189  A    between atoms: _473  and  _474
REMARK  190  A    between atoms: _473  and  _476
REMARK  191  A    between atoms: _476  and  _477
REMARK  192  A    between atoms: _482  and  _484
REMARK  193  A    between atoms: _484  and  _485
REMARK  194  A    between atoms: _484  and  _487
REMARK  195  A    between atoms: _487  and  _488
REMARK  196  A    between atoms: _493  and  _494
REMARK  197  A    between atoms: _496  and  _498
REMARK  198  A    between atoms: _498  and  _499
REMARK  199  A    between atoms: _498  and  _501
REMARK  200  A    between atoms: _501  and  _502
REMARK  201  A    between atoms: _502  and  _503
REMARK  202  A    between atoms: _503  and  _504
REMARK  203  A    between atoms: _504  and  _505
REMARK  204  A    between atoms: _509  and  _511
REMARK  205  A    between atoms: _511  and  _512
REMARK  206  A    between atoms: _511  and  _514
REMARK  207  A    between atoms: _514  and  _515
REMARK  208  A    between atoms: _517  and  _519
REMARK  209  A    between atoms: _519  and  _520
REMARK  210  A    between atoms: _519  and  _522
REMARK  211  A    between atoms: _522  and  _523
REMARK  212  A    between atoms: _526  and  _528
REMARK  213  A    between atoms: _528  and  _529
REMARK  214  A    between atoms: _528  and  _531
REMARK  215  A    between atoms: _531  and  _532
REMARK  216  A    between atoms: _532  and  _533
REMARK  217  A    between atoms: _536  and  _538
REMARK  218  A    between atoms: _538  and  _539
REMARK  219  A    between atoms: _542  and  _544
REMARK  220  A    between atoms: _544  and  _545
REMARK  221  A    between atoms: _544  and  _547
REMARK  222  A    between atoms: _547  and  _548
REMARK  223  A    between atoms: _550  and  _552
REMARK  224  A    between atoms: _552  and  _553
REMARK  225  A    between atoms: _555  and  _557
REMARK  226  A    between atoms: _557  and  _558
REMARK  227  A    between atoms: _557  and  _560
REMARK  228  A    between atoms: _560  and  _561
REMARK  229  A    between atoms: _564  and  _566
REMARK  230  A    between atoms: _566  and  _567
REMARK  231  A    between atoms: _569  and  _571
REMARK  232  A    between atoms: _571  and  _572
REMARK  233  A    between atoms: _571  and  _574
REMARK  234  A    between atoms: _574  and  _575
REMARK  235  A    between atoms: _580  and  _582
REMARK  236  A    between atoms: _582  and  _583
REMARK  237  A    between atoms: _582  and  _585
REMARK  238  A    between atoms: _585  and  _586
REMARK  239  A    between atoms: _586  and  _587
REMARK  240  A    between atoms: _594  and  _595
REMARK  241  A    between atoms: _595  and  _611
REMARK  242  A    between atoms: _596  and  _598
REMARK  243  A    between atoms: _598  and  _599
REMARK  244  A    between atoms: _599  and  _600
REMARK  245  A    between atoms: _604  and  _606
REMARK  246  A    between atoms: _606  and  _607
REMARK  247  A    between atoms: _606  and  _614
REMARK  248  A    between atoms: _607  and  _608
REMARK  249  A    between atoms: _608  and  _609
REMARK  250  A    between atoms: _609  and  _610
REMARK  251  A    between atoms: _610  and  _611
REMARK  252  A    between atoms: _616  and  _618
REMARK  253  A    between atoms: _618  and  _619
REMARK  254  A    between atoms: _618  and  _621
REMARK  255  A    between atoms: _621  and  _622
REMARK  256  A    between atoms: _625  and  _627
REMARK  257  A    between atoms: _627  and  _628
REMARK  258  A    between atoms: _630  and  _632
REMARK  259  A    between atoms: _632  and  _633
REMARK  260  A    between atoms: _636  and  _638
REMARK  261  A    between atoms: _638  and  _639
REMARK  262  A    between atoms: _638  and  _641
REMARK  263  A    between atoms: _641  and  _642
REMARK  264  A    between atoms: _647  and  _648
REMARK                            x       y       z     vdW  Elec       q    Type
REMARK                         _______ _______ _______ _____ _____    ______ ____
ROOT
ATOM      1  O   HOH     1      33.184  12.604  25.989  0.00  0.00    +0.000 OA
ENDROOT
TORSDOF 0
REMARK  Name = ../refined-set-2016/2qrq/2qrq_pocket.pdb
REMARK  264 active torsions:
REMARK  status: ('A' for Active; 'I' for Inactive)
REMARK    1  A    between atoms: _1  and  _3
REMARK    2  A    between atoms: _3  and  _4
REMARK    3  A    between atoms: _3  and  _6
REMARK    4  A    between atoms: _6  and  _7
REMARK    5  A    between atoms: _12  and  _13
REMARK    6  A    between atoms: _15  and  _17
REMARK    7  A    between atoms: _17  and  _18
REMARK    8  A    between atoms: _17  and  _20
REMARK    9  A    between atoms: _20  and  _21
REMARK   10  A    between atoms: _24  and  _26
REMARK   11  A    between atoms: _26  and  _27
REMARK   12  A    between atoms: _26  and  _29
REMARK   13  A    between atoms: _29  and  _30
REMARK   14  A    between atoms: _30  and  _31
REMARK   15  A    between atoms: _34  and  _36
REMARK   16  A    between atoms: _36  and  _37
REMARK   17  A    between atoms: _39  and  _41
REMARK   18  A    between atoms: _41  and  _42
REMARK   19  A    between atoms: _41  and  _44
REMARK   20  A    between atoms: _44  and  _45
REMARK   21  A    between atoms: _50  and  _52
REMARK   22  A    between atoms: _52  and  _53
REMARK   23  A    between atoms: _55  and  _57
REMARK   24  A    between atoms: _57  and  _58
REMARK   25  A    between atoms: _60  and  _62
REMARK   26  A    between atoms: _62  and  _63
REMARK   27  A    between atoms: _62  and  _65
REMARK   28  A    between atoms: _65  and  _66
REMARK   29  A    between atoms: _69  and  _71
REMARK   30  A    between atoms: _71  and  _72
REMARK   31  A    between atoms: _74  and  _76
REMARK   32  A    between atoms: _76  and  _77
REMARK   33  A    between atoms: _76  and  _79
REMARK   34  A    between atoms: _79  and  _80
REMARK   35  A    between atoms: _80  and  _81
REMARK   36  A    between atoms: _81  and  _82
REMARK   37  A    between atoms: _91  and  _93
REMARK   38  A    between atoms: _93  and  _94
REMARK   39  A    between atoms: _93  and  _96
REMARK   40  A    between atoms: _96  and  _97
REMARK   41  A    between atoms: _100  and  _102
REMARK   42  A    between atoms: _102  and  _103
REMARK   43  A    between atoms: _106  and  _108
REMARK   44  A    between atoms: _108  and  _109
REMARK   45  A    between atoms: _108  and  _111
REMARK   46  A    between atoms: _111  and  _112
REMARK   47  A    between atoms: _118  and  _120
REMARK   48  A    between atoms: _120  and  _121
REMARK   49  A    between atoms: _120  and  _123
REMARK   50  A    between atoms: _123  and  _124
REMARK   51  A    between atoms: _127  and  _129
REMARK   52  A    between atoms: _129  and  _130
REMARK   53  A    between atoms: _129  and  _132
REMARK   54  A    between atoms: _132  and  _133
REMARK   55  A    between atoms: _138  and  _139
REMARK   56  A    between atoms: _142  and  _143
REMARK   57  A    between atoms: _148  and  _150
REMARK   58  A    between atoms: _150  and  _151
REMARK   59  A    between atoms: _150  and  _153
REMARK   60  A    between atoms: _153  and  _154
REMARK   61  A    between atoms: _159  and  _161
REMARK   62  A    between atoms: _161  and  _162
REMARK   63  A    between atoms: _161  and  _164
REMARK   64  A    between atoms: _164  and  _165
REMARK   65  A    between atoms: _168  and  _170
REMARK   66  A    between atoms: _170  and  _171
REMARK   67  A    between atoms: _170  and  _173
REMARK   68  A    between atoms: _173  and  _174
REMARK   69  A    between atoms: _179  and  _181
REMARK   70  A    between atoms: _181  and  _182
REMARK   71  A    between atoms: _181  and  _184
REMARK   72  A    between atoms: _184  and  _185
REMARK   73  A    between atoms: _191  and  _193
REMARK   74  A    between atoms: _193  and  _194
REMARK   75  A    between atoms: _193  and  _196
REMARK   76  A    between atoms: _196  and  _197
REMARK   77  A    between atoms: _203  and  _205
REMARK   78  A    between atoms: _205  and  _206
REMARK   79  A    between atoms: _205  and  _208
REMARK   80  A    between atoms: _208  and  _209
REMARK   81  A    between atoms: _209  and  _210
REMARK   82  A    between atoms: _213  and  _215
REMARK   83  A    between atoms: _215  and  _216
REMARK   84  A    between atoms: _215  and  _218
REMARK   85  A    between atoms: _218  and  _219
REMARK   86  A    between atoms: _219  and  _220
REMARK   87  A    between atoms: _220  and  _221
REMARK   88  A    between atoms: _230  and  _232
REMARK   89  A    between atoms: _232  and  _233
REMARK   90  A    between atoms: _232  and  _235
REMARK   91  A    between atoms: _235  and  _236
REMARK   92  A    between atoms: _236  and  _237
REMARK   93  A    between atoms: _240  and  _242
REMARK   94  A    between atoms: _242  and  _243
REMARK   95  A    between atoms: _242  and  _245
REMARK   96  A    between atoms: _245  and  _246
REMARK   97  A    between atoms: _251  and  _253
REMARK   98  A    between atoms: _253  and  _254
REMARK   99  A    between atoms: _253  and  _256
REMARK  100  A    between atoms: _256  and  _257
REMARK  101  A    between atoms: _260  and  _262
REMARK  102  A    between atoms: _262  and  _263
REMARK  103  A    between atoms: _262  and  _265
REMARK  104  A    between atoms: _265  and  _266
REMARK  105  A    between atoms: _269  and  _271
REMARK  106  A    between atoms: _271  and  _272
REMARK  107  A    between atoms: _271  and  _274
REMARK  108  A    between atoms: _274  and  _275
REMARK  109  A    between atoms: _280  and  _282
REMARK  110  A    between atoms: _282  and  _283
REMARK  111  A    between atoms: _282  and  _285
REMARK  112  A    between atoms: _285  and  _286
REMARK  113  A    between atoms: _289  and  _291
REMARK  114  A    between atoms: _291  and  _292
REMARK  115  A    between atoms: _291  and  _294
REMARK  116  A    between atoms: _294  and  _295
REMARK  117  A    between atoms: _300  and  _302
REMARK  118  A    between atoms: _302  and  _303
REMARK  119  A    between atoms: _302  and  _305
REMARK  120  A    between atoms: _305  and  _306
REMARK  121  A    between atoms: _311  and  _313
REMARK  122  A    between atoms: _313  and  _314
REMARK  123  A    between atoms: _313  and  _316
REMARK  124  A    between atoms: _316  and  _317
REMARK  125  A    between atoms: _320  and  _322
REMARK  126  A    between atoms: _322  and  _323
REMARK  127  A    between atoms: _322  and  _325
REMARK  128  A    between atoms: _328  and  _330
REMARK  129  A    between atoms: _330  and  _331
REMARK  130  A    between atoms: _330  and  _333
REMARK  131  A    between atoms: _333  and  _334
REMARK  132  A    between atoms: _337  and  _339
REMARK  133  A    between atoms: _339  and  _340
REMARK  134  A    between atoms: _343  and  _345
REMARK  135  A    between atoms: _345  and  _346
REMARK  136  A    between atoms: _345  and  _348
REMARK  137  A    between atoms: _348  and  _349
REMARK  138  A    between atoms: _352  and  _354
REMARK  139  A    between atoms: _354  and  _355
REMARK  140  A    between atoms: _354  and  _357
REMARK  141  A    between atoms: _357  and  _358
REMARK  142  A    between atoms: _358  and  _359
REMARK  143  A    between atoms: _362  and  _364
REMARK  144  A    between atoms: _364  and  _365
REMARK  145  A    between atoms: _364  and  _367
REMARK  146  A    between atoms: _367  and  _368
REMARK  147  A    between atoms: _373  and  _375
REMARK  148  A    between atoms: _375  and  _376
REMARK  149  A    between atoms: _378  and  _380
REMARK  150  A    between atoms: _380  and  _381
REMARK  151  A    between atoms: _380  and  _383
REMARK  152  A    between atoms: _386  and  _388
REMARK  153  A    between atoms: _388  and  _389
REMARK  154  A    between atoms: _392  and  _394
REMARK  155  A    between atoms: _394  and  _395
REMARK  156  A    between atoms: _394  and  _397
REMARK  157  A    between atoms: _397  and  _398
REMARK  158  A    between atoms: _403  and  _405
REMARK  159  A    between atoms: _405  and  _406
REMARK  160  A    between atoms: _405  and  _408
REMARK  161  A    between atoms: _408  and  _409
REMARK  162  A    between atoms: _409  and  _410
REMARK  163  A    between atoms: _410  and  _411
REMARK  164  A    between atoms: _411  and  _412
REMARK  165  A    between atoms: _416  and  _418
REMARK  166  A    between atoms: _418  and  _419
REMARK  167  A    between atoms: _418  and  _421
REMARK  168  A    between atoms: _421  and  _422
REMARK  169  A    between atoms: _425  and  _427
REMARK  170  A    between atoms: _427  and  _428
REMARK  171  A    between atoms: _427  and  _430
REMARK  172  A    between atoms: _430  and  _431
REMARK  173  A    between atoms: _436  and  _438
REMARK  174  A    between atoms: _438  and  _439
REMARK  175  A    between atoms: _441  and  _443
REMARK  176  A    between atoms: _443  and  _444
REMARK  177  A    between atoms: _443  and  _446
REMARK  178  A    between atoms: _446  and  _447
REMARK  179  A    between atoms: _447  and  _448
REMARK  180  A    between atoms: _448  and  _449
REMARK  181  A    between atoms: _449  and  _450
REMARK  182  A    between atoms: _454  and  _456
REMARK  183  A    between atoms: _456  and  _457
REMARK  184  A    between atoms: _456  and  _459
REMARK  185  A    between atoms: _459  and  _460
REMARK  186  A    between atoms: _460  and  _461
REMARK  187  A    between atoms: _461  and  _462
REMARK  188  A    between atoms: _471  and  _473
REMARK  189  A    between atoms: _473  and  _474
REMARK  190  A    between atoms: _473  and  _476
REMARK  191  A    between atoms: _476  and  _477
REMARK  192  A    between atoms: _482  and  _484
REMARK  193  A    between atoms: _484  and  _485
REMARK  194  A    between atoms: _484  and  _487
REMARK  195  A    between atoms: _487  and  _488
REMARK  196  A    between atoms: _493  and  _494
REMARK  197  A    between atoms: _496  and  _498
REMARK  198  A    between atoms: _498  and  _499
REMARK  199  A    between atoms: _498  and  _501
REMARK  200  A    between atoms: _501  and  _502
REMARK  201  A    between atoms: _502  and  _503
REMARK  202  A    between atoms: _503  and  _504
REMARK  203  A    between atoms: _504  and  _505
REMARK  204  A    between atoms: _509  and  _511
REMARK  205  A    between atoms: _511  and  _512
REMARK  206  A    between atoms: _511  and  _514
REMARK  207  A    between atoms: _514  and  _515
REMARK  208  A    between atoms: _517  and  _519
REMARK  209  A    between atoms: _519  and  _520
REMARK  210  A    between atoms: _519  and  _522
REMARK  211  A    between atoms: _522  and  _523
REMARK  212  A    between atoms: _526  and  _528
REMARK  213  A    between atoms: _528  and  _529
REMARK  214  A    between atoms: _528  and  _531
REMARK  215  A    between atoms: _531  and  _532
REMARK  216  A    between atoms: _532  and  _533
REMARK  217  A    between atoms: _536  and  _538
REMARK  218  A    between atoms: _538  and  _539
REMARK  219  A    between atoms: _542  and  _544
REMARK  220  A    between atoms: _544  and  _545
REMARK  221  A    between atoms: _544  and  _547
REMARK  222  A    between atoms: _547  and  _548
REMARK  223  A    between atoms: _550  and  _552
REMARK  224  A    between atoms: _552  and  _553
REMARK  225  A    between atoms: _555  and  _557
REMARK  226  A    between atoms: _557  and  _558
REMARK  227  A    between atoms: _557  and  _560
REMARK  228  A    between atoms: _560  and  _561
REMARK  229  A    between atoms: _564  and  _566
REMARK  230  A    between atoms: _566  and  _567
REMARK  231  A    between atoms: _569  and  _571
REMARK  232  A    between atoms: _571  and  _572
REMARK  233  A    between atoms: _571  and  _574
REMARK  234  A    between atoms: _574  and  _575
REMARK  235  A    between atoms: _580  and  _582
REMARK  236  A    between atoms: _582  and  _583
REMARK  237  A    between atoms: _582  and  _585
REMARK  238  A    between atoms: _585  and  _586
REMARK  239  A    between atoms: _586  and  _587
REMARK  240  A    between atoms: _594  and  _595
REMARK  241  A    between atoms: _595  and  _611
REMARK  242  A    between atoms: _596  and  _598
REMARK  243  A    between atoms: _598  and  _599
REMARK  244  A    between atoms: _599  and  _600
REMARK  245  A    between atoms: _604  and  _606
REMARK  246  A    between atoms: _606  and  _607
REMARK  247  A    between atoms: _606  and  _614
REMARK  248  A    between atoms: _607  and  _608
REMARK  249  A    between atoms: _608  and  _609
REMARK  250  A    between atoms: _609  and  _610
REMARK  251  A    between atoms: _610  and  _611
REMARK  252  A    between atoms: _616  and  _618
REMARK  253  A    between atoms: _618  and  _619
REMARK  254  A    between atoms: _618  and  _621
REMARK  255  A    between atoms: _621  and  _622
REMARK  256  A    between atoms: _625  and  _627
REMARK  257  A    between atoms: _627  and  _628
REMARK  258  A    between atoms: _630  and  _632
REMARK  259  A    between atoms: _632  and  _633
REMARK  260  A    between atoms: _636  and  _638
REMARK  261  A    between atoms: _638  and  _639
REMARK  262  A    between atoms: _638  and  _641
REMARK  263  A    between atoms: _641  and  _642
REMARK  264  A    between atoms: _647  and  _648
REMARK                            x       y       z     vdW  Elec       q    Type
REMARK                         _______ _______ _______ _____ _____    ______ ____
ROOT
ATOM      1  O   HOH     1      26.556  19.021  28.591  0.00  0.00    +0.000 OA
ENDROOT
TORSDOF 0
REMARK  Name = ../refined-set-2016/2qrq/2qrq_pocket.pdb
REMARK  264 active torsions:
REMARK  status: ('A' for Active; 'I' for Inactive)
REMARK    1  A    between atoms: _1  and  _3
REMARK    2  A    between atoms: _3  and  _4
REMARK    3  A    between atoms: _3  and  _6
REMARK    4  A    between atoms: _6  and  _7
REMARK    5  A    between atoms: _12  and  _13
REMARK    6  A    between atoms: _15  and  _17
REMARK    7  A    between atoms: _17  and  _18
REMARK    8  A    between atoms: _17  and  _20
REMARK    9  A    between atoms: _20  and  _21
REMARK   10  A    between atoms: _24  and  _26
REMARK   11  A    between atoms: _26  and  _27
REMARK   12  A    between atoms: _26  and  _29
REMARK   13  A    between atoms: _29  and  _30
REMARK   14  A    between atoms: _30  and  _31
REMARK   15  A    between atoms: _34  and  _36
REMARK   16  A    between atoms: _36  and  _37
REMARK   17  A    between atoms: _39  and  _41
REMARK   18  A    between atoms: _41  and  _42
REMARK   19  A    between atoms: _41  and  _44
REMARK   20  A    between atoms: _44  and  _45
REMARK   21  A    between atoms: _50  and  _52
REMARK   22  A    between atoms: _52  and  _53
REMARK   23  A    between atoms: _55  and  _57
REMARK   24  A    between atoms: _57  and  _58
REMARK   25  A    between atoms: _60  and  _62
REMARK   26  A    between atoms: _62  and  _63
REMARK   27  A    between atoms: _62  and  _65
REMARK   28  A    between atoms: _65  and  _66
REMARK   29  A    between atoms: _69  and  _71
REMARK   30  A    between atoms: _71  and  _72
REMARK   31  A    between atoms: _74  and  _76
REMARK   32  A    between atoms: _76  and  _77
REMARK   33  A    between atoms: _76  and  _79
REMARK   34  A    between atoms: _79  and  _80
REMARK   35  A    between atoms: _80  and  _81
REMARK   36  A    between atoms: _81  and  _82
REMARK   37  A    between atoms: _91  and  _93
REMARK   38  A    between atoms: _93  and  _94
REMARK   39  A    between atoms: _93  and  _96
REMARK   40  A    between atoms: _96  and  _97
REMARK   41  A    between atoms: _100  and  _102
REMARK   42  A    between atoms: _102  and  _103
REMARK   43  A    between atoms: _106  and  _108
REMARK   44  A    between atoms: _108  and  _109
REMARK   45  A    between atoms: _108  and  _111
REMARK   46  A    between atoms: _111  and  _112
REMARK   47  A    between atoms: _118  and  _120
REMARK   48  A    between atoms: _120  and  _121
REMARK   49  A    between atoms: _120  and  _123
REMARK   50  A    between atoms: _123  and  _124
REMARK   51  A    between atoms: _127  and  _129
REMARK   52  A    between atoms: _129  and  _130
REMARK   53  A    between atoms: _129  and  _132
REMARK   54  A    between atoms: _132  and  _133
REMARK   55  A    between atoms: _138  and  _139
REMARK   56  A    between atoms: _142  and  _143
REMARK   57  A    between atoms: _148  and  _150
REMARK   58  A    between atoms: _150  and  _151
REMARK   59  A    between atoms: _150  and  _153
REMARK   60  A    between atoms: _153  and  _154
REMARK   61  A    between atoms: _159  and  _161
REMARK   62  A    between atoms: _161  and  _162
REMARK   63  A    between atoms: _161  and  _164
REMARK   64  A    between atoms: _164  and  _165
REMARK   65  A    between atoms: _168  and  _170
REMARK   66  A    between atoms: _170  and  _171
REMARK   67  A    between atoms: _170  and  _173
REMARK   68  A    between atoms: _173  and  _174
REMARK   69  A    between atoms: _179  and  _181
REMARK   70  A    between atoms: _181  and  _182
REMARK   71  A    between atoms: _181  and  _184
REMARK   72  A    between atoms: _184  and  _185
REMARK   73  A    between atoms: _191  and  _193
REMARK   74  A    between atoms: _193  and  _194
REMARK   75  A    between atoms: _193  and  _196
REMARK   76  A    between atoms: _196  and  _197
REMARK   77  A    between atoms: _203  and  _205
REMARK   78  A    between atoms: _205  and  _206
REMARK   79  A    between atoms: _205  and  _208
REMARK   80  A    between atoms: _208  and  _209
REMARK   81  A    between atoms: _209  and  _210
REMARK   82  A    between atoms: _213  and  _215
REMARK   83  A    between atoms: _215  and  _216
REMARK   84  A    between atoms: _215  and  _218
REMARK   85  A    between atoms: _218  and  _219
REMARK   86  A    between atoms: _219  and  _220
REMARK   87  A    between atoms: _220  and  _221
REMARK   88  A    between atoms: _230  and  _232
REMARK   89  A    between atoms: _232  and  _233
REMARK   90  A    between atoms: _232  and  _235
REMARK   91  A    between atoms: _235  and  _236
REMARK   92  A    between atoms: _236  and  _237
REMARK   93  A    between atoms: _240  and  _242
REMARK   94  A    between atoms: _242  and  _243
REMARK   95  A    between atoms: _242  and  _245
REMARK   96  A    between atoms: _245  and  _246
REMARK   97  A    between atoms: _251  and  _253
REMARK   98  A    between atoms: _253  and  _254
REMARK   99  A    between atoms: _253  and  _256
REMARK  100  A    between atoms: _256  and  _257
REMARK  101  A    between atoms: _260  and  _262
REMARK  102  A    between atoms: _262  and  _263
REMARK  103  A    between atoms: _262  and  _265
REMARK  104  A    between atoms: _265  and  _266
REMARK  105  A    between atoms: _269  and  _271
REMARK  106  A    between atoms: _271  and  _272
REMARK  107  A    between atoms: _271  and  _274
REMARK  108  A    between atoms: _274  and  _275
REMARK  109  A    between atoms: _280  and  _282
REMARK  110  A    between atoms: _282  and  _283
REMARK  111  A    between atoms: _282  and  _285
REMARK  112  A    between atoms: _285  and  _286
REMARK  113  A    between atoms: _289  and  _291
REMARK  114  A    between atoms: _291  and  _292
REMARK  115  A    between atoms: _291  and  _294
REMARK  116  A    between atoms: _294  and  _295
REMARK  117  A    between atoms: _300  and  _302
REMARK  118  A    between atoms: _302  and  _303
REMARK  119  A    between atoms: _302  and  _305
REMARK  120  A    between atoms: _305  and  _306
REMARK  121  A    between atoms: _311  and  _313
REMARK  122  A    between atoms: _313  and  _314
REMARK  123  A    between atoms: _313  and  _316
REMARK  124  A    between atoms: _316  and  _317
REMARK  125  A    between atoms: _320  and  _322
REMARK  126  A    between atoms: _322  and  _323
REMARK  127  A    between atoms: _322  and  _325
REMARK  128  A    between atoms: _328  and  _330
REMARK  129  A    between atoms: _330  and  _331
REMARK  130  A    between atoms: _330  and  _333
REMARK  131  A    between atoms: _333  and  _334
REMARK  132  A    between atoms: _337  and  _339
REMARK  133  A    between atoms: _339  and  _340
REMARK  134  A    between atoms: _343  and  _345
REMARK  135  A    between atoms: _345  and  _346
REMARK  136  A    between atoms: _345  and  _348
REMARK  137  A    between atoms: _348  and  _349
REMARK  138  A    between atoms: _352  and  _354
REMARK  139  A    between atoms: _354  and  _355
REMARK  140  A    between atoms: _354  and  _357
REMARK  141  A    between atoms: _357  and  _358
REMARK  142  A    between atoms: _358  and  _359
REMARK  143  A    between atoms: _362  and  _364
REMARK  144  A    between atoms: _364  and  _365
REMARK  145  A    between atoms: _364  and  _367
REMARK  146  A    between atoms: _367  and  _368
REMARK  147  A    between atoms: _373  and  _375
REMARK  148  A    between atoms: _375  and  _376
REMARK  149  A    between atoms: _378  and  _380
REMARK  150  A    between atoms: _380  and  _381
REMARK  151  A    between atoms: _380  and  _383
REMARK  152  A    between atoms: _386  and  _388
REMARK  153  A    between atoms: _388  and  _389
REMARK  154  A    between atoms: _392  and  _394
REMARK  155  A    between atoms: _394  and  _395
REMARK  156  A    between atoms: _394  and  _397
REMARK  157  A    between atoms: _397  and  _398
REMARK  158  A    between atoms: _403  and  _405
REMARK  159  A    between atoms: _405  and  _406
REMARK  160  A    between atoms: _405  and  _408
REMARK  161  A    between atoms: _408  and  _409
REMARK  162  A    between atoms: _409  and  _410
REMARK  163  A    between atoms: _410  and  _411
REMARK  164  A    between atoms: _411  and  _412
REMARK  165  A    between atoms: _416  and  _418
REMARK  166  A    between atoms: _418  and  _419
REMARK  167  A    between atoms: _418  and  _421
REMARK  168  A    between atoms: _421  and  _422
REMARK  169  A    between atoms: _425  and  _427
REMARK  170  A    between atoms: _427  and  _428
REMARK  171  A    between atoms: _427  and  _430
REMARK  172  A    between atoms: _430  and  _431
REMARK  173  A    between atoms: _436  and  _438
REMARK  174  A    between atoms: _438  and  _439
REMARK  175  A    between atoms: _441  and  _443
REMARK  176  A    between atoms: _443  and  _444
REMARK  177  A    between atoms: _443  and  _446
REMARK  178  A    between atoms: _446  and  _447
REMARK  179  A    between atoms: _447  and  _448
REMARK  180  A    between atoms: _448  and  _449
REMARK  181  A    between atoms: _449  and  _450
REMARK  182  A    between atoms: _454  and  _456
REMARK  183  A    between atoms: _456  and  _457
REMARK  184  A    between atoms: _456  and  _459
REMARK  185  A    between atoms: _459  and  _460
REMARK  186  A    between atoms: _460  and  _461
REMARK  187  A    between atoms: _461  and  _462
REMARK  188  A    between atoms: _471  and  _473
REMARK  189  A    between atoms: _473  and  _474
REMARK  190  A    between atoms: _473  and  _476
REMARK  191  A    between atoms: _476  and  _477
REMARK  192  A    between atoms: _482  and  _484
REMARK  193  A    between atoms: _484  and  _485
REMARK  194  A    between atoms: _484  and  _487
REMARK  195  A    between atoms: _487  and  _488
REMARK  196  A    between atoms: _493  and  _494
REMARK  197  A    between atoms: _496  and  _498
REMARK  198  A    between atoms: _498  and  _499
REMARK  199  A    between atoms: _498  and  _501
REMARK  200  A    between atoms: _501  and  _502
REMARK  201  A    between atoms: _502  and  _503
REMARK  202  A    between atoms: _503  and  _504
REMARK  203  A    between atoms: _504  and  _505
REMARK  204  A    between atoms: _509  and  _511
REMARK  205  A    between atoms: _511  and  _512
REMARK  206  A    between atoms: _511  and  _514
REMARK  207  A    between atoms: _514  and  _515
REMARK  208  A    between atoms: _517  and  _519
REMARK  209  A    between atoms: _519  and  _520
REMARK  210  A    between atoms: _519  and  _522
REMARK  211  A    between atoms: _522  and  _523
REMARK  212  A    between atoms: _526  and  _528
REMARK  213  A    between atoms: _528  and  _529
REMARK  214  A    between atoms: _528  and  _531
REMARK  215  A    between atoms: _531  and  _532
REMARK  216  A    between atoms: _532  and  _533
REMARK  217  A    between atoms: _536  and  _538
REMARK  218  A    between atoms: _538  and  _539
REMARK  219  A    between atoms: _542  and  _544
REMARK  220  A    between atoms: _544  and  _545
REMARK  221  A    between atoms: _544  and  _547
REMARK  222  A    between atoms: _547  and  _548
REMARK  223  A    between atoms: _550  and  _552
REMARK  224  A    between atoms: _552  and  _553
REMARK  225  A    between atoms: _555  and  _557
REMARK  226  A    between atoms: _557  and  _558
REMARK  227  A    between atoms: _557  and  _560
REMARK  228  A    between atoms: _560  and  _561
REMARK  229  A    between atoms: _564  and  _566
REMARK  230  A    between atoms: _566  and  _567
REMARK  231  A    between atoms: _569  and  _571
REMARK  232  A    between atoms: _571  and  _572
REMARK  233  A    between atoms: _571  and  _574
REMARK  234  A    between atoms: _574  and  _575
REMARK  235  A    between atoms: _580  and  _582
REMARK  236  A    between atoms: _582  and  _583
REMARK  237  A    between atoms: _582  and  _585
REMARK  238  A    between atoms: _585  and  _586
REMARK  239  A    between atoms: _586  and  _587
REMARK  240  A    between atoms: _594  and  _595
REMARK  241  A    between atoms: _595  and  _611
REMARK  242  A    between atoms: _596  and  _598
REMARK  243  A    between atoms: _598  and  _599
REMARK  244  A    between atoms: _599  and  _600
REMARK  245  A    between atoms: _604  and  _606
REMARK  246  A    between atoms: _606  and  _607
REMARK  247  A    between atoms: _606  and  _614
REMARK  248  A    between atoms: _607  and  _608
REMARK  249  A    between atoms: _608  and  _609
REMARK  250  A    between atoms: _609  and  _610
REMARK  251  A    between atoms: _610  and  _611
REMARK  252  A    between atoms: _616  and  _618
REMARK  253  A    between atoms: _618  and  _619
REMARK  254  A    between atoms: _618  and  _621
REMARK  255  A    between atoms: _621  and  _622
REMARK  256  A    between atoms: _625  and  _627
REMARK  257  A    between atoms: _627  and  _628
REMARK  258  A    between atoms: _630  and  _632
REMARK  259  A    between atoms: _632  and  _633
REMARK  260  A    between atoms: _636  and  _638
REMARK  261  A    between atoms: _638  and  _639
REMARK  262  A    between atoms: _638  and  _641
REMARK  263  A    between atoms: _641  and  _642
REMARK  264  A    between atoms: _647  and  _648
REMARK                            x       y       z     vdW  Elec       q    Type
REMARK                         _______ _______ _______ _____ _____    ______ ____
ROOT
ATOM      1  O   HOH     1      35.033  12.293  30.727  0.00  0.00    +0.000 OA
ENDROOT
TORSDOF 0
REMARK  Name = ../refined-set-2016/2qrq/2qrq_pocket.pdb
REMARK  264 active torsions:
REMARK  status: ('A' for Active; 'I' for Inactive)
REMARK    1  A    between atoms: _1  and  _3
REMARK    2  A    between atoms: _3  and  _4
REMARK    3  A    between atoms: _3  and  _6
REMARK    4  A    between atoms: _6  and  _7
REMARK    5  A    between atoms: _12  and  _13
REMARK    6  A    between atoms: _15  and  _17
REMARK    7  A    between atoms: _17  and  _18
REMARK    8  A    between atoms: _17  and  _20
REMARK    9  A    between atoms: _20  and  _21
REMARK   10  A    between atoms: _24  and  _26
REMARK   11  A    between atoms: _26  and  _27
REMARK   12  A    between atoms: _26  and  _29
REMARK   13  A    between atoms: _29  and  _30
REMARK   14  A    between atoms: _30  and  _31
REMARK   15  A    between atoms: _34  and  _36
REMARK   16  A    between atoms: _36  and  _37
REMARK   17  A    between atoms: _39  and  _41
REMARK   18  A    between atoms: _41  and  _42
REMARK   19  A    between atoms: _41  and  _44
REMARK   20  A    between atoms: _44  and  _45
REMARK   21  A    between atoms: _50  and  _52
REMARK   22  A    between atoms: _52  and  _53
REMARK   23  A    between atoms: _55  and  _57
REMARK   24  A    between atoms: _57  and  _58
REMARK   25  A    between atoms: _60  and  _62
REMARK   26  A    between atoms: _62  and  _63
REMARK   27  A    between atoms: _62  and  _65
REMARK   28  A    between atoms: _65  and  _66
REMARK   29  A    between atoms: _69  and  _71
REMARK   30  A    between atoms: _71  and  _72
REMARK   31  A    between atoms: _74  and  _76
REMARK   32  A    between atoms: _76  and  _77
REMARK   33  A    between atoms: _76  and  _79
REMARK   34  A    between atoms: _79  and  _80
REMARK   35  A    between atoms: _80  and  _81
REMARK   36  A    between atoms: _81  and  _82
REMARK   37  A    between atoms: _91  and  _93
REMARK   38  A    between atoms: _93  and  _94
REMARK   39  A    between atoms: _93  and  _96
REMARK   40  A    between atoms: _96  and  _97
REMARK   41  A    between atoms: _100  and  _102
REMARK   42  A    between atoms: _102  and  _103
REMARK   43  A    between atoms: _106  and  _108
REMARK   44  A    between atoms: _108  and  _109
REMARK   45  A    between atoms: _108  and  _111
REMARK   46  A    between atoms: _111  and  _112
REMARK   47  A    between atoms: _118  and  _120
REMARK   48  A    between atoms: _120  and  _121
REMARK   49  A    between atoms: _120  and  _123
REMARK   50  A    between atoms: _123  and  _124
REMARK   51  A    between atoms: _127  and  _129
REMARK   52  A    between atoms: _129  and  _130
REMARK   53  A    between atoms: _129  and  _132
REMARK   54  A    between atoms: _132  and  _133
REMARK   55  A    between atoms: _138  and  _139
REMARK   56  A    between atoms: _142  and  _143
REMARK   57  A    between atoms: _148  and  _150
REMARK   58  A    between atoms: _150  and  _151
REMARK   59  A    between atoms: _150  and  _153
REMARK   60  A    between atoms: _153  and  _154
REMARK   61  A    between atoms: _159  and  _161
REMARK   62  A    between atoms: _161  and  _162
REMARK   63  A    between atoms: _161  and  _164
REMARK   64  A    between atoms: _164  and  _165
REMARK   65  A    between atoms: _168  and  _170
REMARK   66  A    between atoms: _170  and  _171
REMARK   67  A    between atoms: _170  and  _173
REMARK   68  A    between atoms: _173  and  _174
REMARK   69  A    between atoms: _179  and  _181
REMARK   70  A    between atoms: _181  and  _182
REMARK   71  A    between atoms: _181  and  _184
REMARK   72  A    between atoms: _184  and  _185
REMARK   73  A    between atoms: _191  and  _193
REMARK   74  A    between atoms: _193  and  _194
REMARK   75  A    between atoms: _193  and  _196
REMARK   76  A    between atoms: _196  and  _197
REMARK   77  A    between atoms: _203  and  _205
REMARK   78  A    between atoms: _205  and  _206
REMARK   79  A    between atoms: _205  and  _208
REMARK   80  A    between atoms: _208  and  _209
REMARK   81  A    between atoms: _209  and  _210
REMARK   82  A    between atoms: _213  and  _215
REMARK   83  A    between atoms: _215  and  _216
REMARK   84  A    between atoms: _215  and  _218
REMARK   85  A    between atoms: _218  and  _219
REMARK   86  A    between atoms: _219  and  _220
REMARK   87  A    between atoms: _220  and  _221
REMARK   88  A    between atoms: _230  and  _232
REMARK   89  A    between atoms: _232  and  _233
REMARK   90  A    between atoms: _232  and  _235
REMARK   91  A    between atoms: _235  and  _236
REMARK   92  A    between atoms: _236  and  _237
REMARK   93  A    between atoms: _240  and  _242
REMARK   94  A    between atoms: _242  and  _243
REMARK   95  A    between atoms: _242  and  _245
REMARK   96  A    between atoms: _245  and  _246
REMARK   97  A    between atoms: _251  and  _253
REMARK   98  A    between atoms: _253  and  _254
REMARK   99  A    between atoms: _253  and  _256
REMARK  100  A    between atoms: _256  and  _257
REMARK  101  A    between atoms: _260  and  _262
REMARK  102  A    between atoms: _262  and  _263
REMARK  103  A    between atoms: _262  and  _265
REMARK  104  A    between atoms: _265  and  _266
REMARK  105  A    between atoms: _269  and  _271
REMARK  106  A    between atoms: _271  and  _272
REMARK  107  A    between atoms: _271  and  _274
REMARK  108  A    between atoms: _274  and  _275
REMARK  109  A    between atoms: _280  and  _282
REMARK  110  A    between atoms: _282  and  _283
REMARK  111  A    between atoms: _282  and  _285
REMARK  112  A    between atoms: _285  and  _286
REMARK  113  A    between atoms: _289  and  _291
REMARK  114  A    between atoms: _291  and  _292
REMARK  115  A    between atoms: _291  and  _294
REMARK  116  A    between atoms: _294  and  _295
REMARK  117  A    between atoms: _300  and  _302
REMARK  118  A    between atoms: _302  and  _303
REMARK  119  A    between atoms: _302  and  _305
REMARK  120  A    between atoms: _305  and  _306
REMARK  121  A    between atoms: _311  and  _313
REMARK  122  A    between atoms: _313  and  _314
REMARK  123  A    between atoms: _313  and  _316
REMARK  124  A    between atoms: _316  and  _317
REMARK  125  A    between atoms: _320  and  _322
REMARK  126  A    between atoms: _322  and  _323
REMARK  127  A    between atoms: _322  and  _325
REMARK  128  A    between atoms: _328  and  _330
REMARK  129  A    between atoms: _330  and  _331
REMARK  130  A    between atoms: _330  and  _333
REMARK  131  A    between atoms: _333  and  _334
REMARK  132  A    between atoms: _337  and  _339
REMARK  133  A    between atoms: _339  and  _340
REMARK  134  A    between atoms: _343  and  _345
REMARK  135  A    between atoms: _345  and  _346
REMARK  136  A    between atoms: _345  and  _348
REMARK  137  A    between atoms: _348  and  _349
REMARK  138  A    between atoms: _352  and  _354
REMARK  139  A    between atoms: _354  and  _355
REMARK  140  A    between atoms: _354  and  _357
REMARK  141  A    between atoms: _357  and  _358
REMARK  142  A    between atoms: _358  and  _359
REMARK  143  A    between atoms: _362  and  _364
REMARK  144  A    between atoms: _364  and  _365
REMARK  145  A    between atoms: _364  and  _367
REMARK  146  A    between atoms: _367  and  _368
REMARK  147  A    between atoms: _373  and  _375
REMARK  148  A    between atoms: _375  and  _376
REMARK  149  A    between atoms: _378  and  _380
REMARK  150  A    between atoms: _380  and  _381
REMARK  151  A    between atoms: _380  and  _383
REMARK  152  A    between atoms: _386  and  _388
REMARK  153  A    between atoms: _388  and  _389
REMARK  154  A    between atoms: _392  and  _394
REMARK  155  A    between atoms: _394  and  _395
REMARK  156  A    between atoms: _394  and  _397
REMARK  157  A    between atoms: _397  and  _398
REMARK  158  A    between atoms: _403  and  _405
REMARK  159  A    between atoms: _405  and  _406
REMARK  160  A    between atoms: _405  and  _408
REMARK  161  A    between atoms: _408  and  _409
REMARK  162  A    between atoms: _409  and  _410
REMARK  163  A    between atoms: _410  and  _411
REMARK  164  A    between atoms: _411  and  _412
REMARK  165  A    between atoms: _416  and  _418
REMARK  166  A    between atoms: _418  and  _419
REMARK  167  A    between atoms: _418  and  _421
REMARK  168  A    between atoms: _421  and  _422
REMARK  169  A    between atoms: _425  and  _427
REMARK  170  A    between atoms: _427  and  _428
REMARK  171  A    between atoms: _427  and  _430
REMARK  172  A    between atoms: _430  and  _431
REMARK  173  A    between atoms: _436  and  _438
REMARK  174  A    between atoms: _438  and  _439
REMARK  175  A    between atoms: _441  and  _443
REMARK  176  A    between atoms: _443  and  _444
REMARK  177  A    between atoms: _443  and  _446
REMARK  178  A    between atoms: _446  and  _447
REMARK  179  A    between atoms: _447  and  _448
REMARK  180  A    between atoms: _448  and  _449
REMARK  181  A    between atoms: _449  and  _450
REMARK  182  A    between atoms: _454  and  _456
REMARK  183  A    between atoms: _456  and  _457
REMARK  184  A    between atoms: _456  and  _459
REMARK  185  A    between atoms: _459  and  _460
REMARK  186  A    between atoms: _460  and  _461
REMARK  187  A    between atoms: _461  and  _462
REMARK  188  A    between atoms: _471  and  _473
REMARK  189  A    between atoms: _473  and  _474
REMARK  190  A    between atoms: _473  and  _476
REMARK  191  A    between atoms: _476  and  _477
REMARK  192  A    between atoms: _482  and  _484
REMARK  193  A    between atoms: _484  and  _485
REMARK  194  A    between atoms: _484  and  _487
REMARK  195  A    between atoms: _487  and  _488
REMARK  196  A    between atoms: _493  and  _494
REMARK  197  A    between atoms: _496  and  _498
REMARK  198  A    between atoms: _498  and  _499
REMARK  199  A    between atoms: _498  and  _501
REMARK  200  A    between atoms: _501  and  _502
REMARK  201  A    between atoms: _502  and  _503
REMARK  202  A    between atoms: _503  and  _504
REMARK  203  A    between atoms: _504  and  _505
REMARK  204  A    between atoms: _509  and  _511
REMARK  205  A    between atoms: _511  and  _512
REMARK  206  A    between atoms: _511  and  _514
REMARK  207  A    between atoms: _514  and  _515
REMARK  208  A    between atoms: _517  and  _519
REMARK  209  A    between atoms: _519  and  _520
REMARK  210  A    between atoms: _519  and  _522
REMARK  211  A    between atoms: _522  and  _523
REMARK  212  A    between atoms: _526  and  _528
REMARK  213  A    between atoms: _528  and  _529
REMARK  214  A    between atoms: _528  and  _531
REMARK  215  A    between atoms: _531  and  _532
REMARK  216  A    between atoms: _532  and  _533
REMARK  217  A    between atoms: _536  and  _538
REMARK  218  A    between atoms: _538  and  _539
REMARK  219  A    between atoms: _542  and  _544
REMARK  220  A    between atoms: _544  and  _545
REMARK  221  A    between atoms: _544  and  _547
REMARK  222  A    between atoms: _547  and  _548
REMARK  223  A    between atoms: _550  and  _552
REMARK  224  A    between atoms: _552  and  _553
REMARK  225  A    between atoms: _555  and  _557
REMARK  226  A    between atoms: _557  and  _558
REMARK  227  A    between atoms: _557  and  _560
REMARK  228  A    between atoms: _560  and  _561
REMARK  229  A    between atoms: _564  and  _566
REMARK  230  A    between atoms: _566  and  _567
REMARK  231  A    between atoms: _569  and  _571
REMARK  232  A    between atoms: _571  and  _572
REMARK  233  A    between atoms: _571  and  _574
REMARK  234  A    between atoms: _574  and  _575
REMARK  235  A    between atoms: _580  and  _582
REMARK  236  A    between atoms: _582  and  _583
REMARK  237  A    between atoms: _582  and  _585
REMARK  238  A    between atoms: _585  and  _586
REMARK  239  A    between atoms: _586  and  _587
REMARK  240  A    between atoms: _594  and  _595
REMARK  241  A    between atoms: _595  and  _611
REMARK  242  A    between atoms: _596  and  _598
REMARK  243  A    between atoms: _598  and  _599
REMARK  244  A    between atoms: _599  and  _600
REMARK  245  A    between atoms: _604  and  _606
REMARK  246  A    between atoms: _606  and  _607
REMARK  247  A    between atoms: _606  and  _614
REMARK  248  A    between atoms: _607  and  _608
REMARK  249  A    between atoms: _608  and  _609
REMARK  250  A    between atoms: _609  and  _610
REMARK  251  A    between atoms: _610  and  _611
REMARK  252  A    between atoms: _616  and  _618
REMARK  253  A    between atoms: _618  and  _619
REMARK  254  A    between atoms: _618  and  _621
REMARK  255  A    between atoms: _621  and  _622
REMARK  256  A    between atoms: _625  and  _627
REMARK  257  A    between atoms: _627  and  _628
REMARK  258  A    between atoms: _630  and  _632
REMARK  259  A    between atoms: _632  and  _633
REMARK  260  A    between atoms: _636  and  _638
REMARK  261  A    between atoms: _638  and  _639
REMARK  262  A    between atoms: _638  and  _641
REMARK  263  A    between atoms: _641  and  _642
REMARK  264  A    between atoms: _647  and  _648
REMARK                            x       y       z     vdW  Elec       q    Type
REMARK                         _______ _______ _______ _____ _____    ______ ____
ROOT
ATOM      1  O   HOH     1      36.177  19.077  36.411  0.00  0.00    +0.000 OA
ENDROOT
TORSDOF 0
REMARK  Name = ../refined-set-2016/2qrq/2qrq_pocket.pdb
REMARK  264 active torsions:
REMARK  status: ('A' for Active; 'I' for Inactive)
REMARK    1  A    between atoms: _1  and  _3
REMARK    2  A    between atoms: _3  and  _4
REMARK    3  A    between atoms: _3  and  _6
REMARK    4  A    between atoms: _6  and  _7
REMARK    5  A    between atoms: _12  and  _13
REMARK    6  A    between atoms: _15  and  _17
REMARK    7  A    between atoms: _17  and  _18
REMARK    8  A    between atoms: _17  and  _20
REMARK    9  A    between atoms: _20  and  _21
REMARK   10  A    between atoms: _24  and  _26
REMARK   11  A    between atoms: _26  and  _27
REMARK   12  A    between atoms: _26  and  _29
REMARK   13  A    between atoms: _29  and  _30
REMARK   14  A    between atoms: _30  and  _31
REMARK   15  A    between atoms: _34  and  _36
REMARK   16  A    between atoms: _36  and  _37
REMARK   17  A    between atoms: _39  and  _41
REMARK   18  A    between atoms: _41  and  _42
REMARK   19  A    between atoms: _41  and  _44
REMARK   20  A    between atoms: _44  and  _45
REMARK   21  A    between atoms: _50  and  _52
REMARK   22  A    between atoms: _52  and  _53
REMARK   23  A    between atoms: _55  and  _57
REMARK   24  A    between atoms: _57  and  _58
REMARK   25  A    between atoms: _60  and  _62
REMARK   26  A    between atoms: _62  and  _63
REMARK   27  A    between atoms: _62  and  _65
REMARK   28  A    between atoms: _65  and  _66
REMARK   29  A    between atoms: _69  and  _71
REMARK   30  A    between atoms: _71  and  _72
REMARK   31  A    between atoms: _74  and  _76
REMARK   32  A    between atoms: _76  and  _77
REMARK   33  A    between atoms: _76  and  _79
REMARK   34  A    between atoms: _79  and  _80
REMARK   35  A    between atoms: _80  and  _81
REMARK   36  A    between atoms: _81  and  _82
REMARK   37  A    between atoms: _91  and  _93
REMARK   38  A    between atoms: _93  and  _94
REMARK   39  A    between atoms: _93  and  _96
REMARK   40  A    between atoms: _96  and  _97
REMARK   41  A    between atoms: _100  and  _102
REMARK   42  A    between atoms: _102  and  _103
REMARK   43  A    between atoms: _106  and  _108
REMARK   44  A    between atoms: _108  and  _109
REMARK   45  A    between atoms: _108  and  _111
REMARK   46  A    between atoms: _111  and  _112
REMARK   47  A    between atoms: _118  and  _120
REMARK   48  A    between atoms: _120  and  _121
REMARK   49  A    between atoms: _120  and  _123
REMARK   50  A    between atoms: _123  and  _124
REMARK   51  A    between atoms: _127  and  _129
REMARK   52  A    between atoms: _129  and  _130
REMARK   53  A    between atoms: _129  and  _132
REMARK   54  A    between atoms: _132  and  _133
REMARK   55  A    between atoms: _138  and  _139
REMARK   56  A    between atoms: _142  and  _143
REMARK   57  A    between atoms: _148  and  _150
REMARK   58  A    between atoms: _150  and  _151
REMARK   59  A    between atoms: _150  and  _153
REMARK   60  A    between atoms: _153  and  _154
REMARK   61  A    between atoms: _159  and  _161
REMARK   62  A    between atoms: _161  and  _162
REMARK   63  A    between atoms: _161  and  _164
REMARK   64  A    between atoms: _164  and  _165
REMARK   65  A    between atoms: _168  and  _170
REMARK   66  A    between atoms: _170  and  _171
REMARK   67  A    between atoms: _170  and  _173
REMARK   68  A    between atoms: _173  and  _174
REMARK   69  A    between atoms: _179  and  _181
REMARK   70  A    between atoms: _181  and  _182
REMARK   71  A    between atoms: _181  and  _184
REMARK   72  A    between atoms: _184  and  _185
REMARK   73  A    between atoms: _191  and  _193
REMARK   74  A    between atoms: _193  and  _194
REMARK   75  A    between atoms: _193  and  _196
REMARK   76  A    between atoms: _196  and  _197
REMARK   77  A    between atoms: _203  and  _205
REMARK   78  A    between atoms: _205  and  _206
REMARK   79  A    between atoms: _205  and  _208
REMARK   80  A    between atoms: _208  and  _209
REMARK   81  A    between atoms: _209  and  _210
REMARK   82  A    between atoms: _213  and  _215
REMARK   83  A    between atoms: _215  and  _216
REMARK   84  A    between atoms: _215  and  _218
REMARK   85  A    between atoms: _218  and  _219
REMARK   86  A    between atoms: _219  and  _220
REMARK   87  A    between atoms: _220  and  _221
REMARK   88  A    between atoms: _230  and  _232
REMARK   89  A    between atoms: _232  and  _233
REMARK   90  A    between atoms: _232  and  _235
REMARK   91  A    between atoms: _235  and  _236
REMARK   92  A    between atoms: _236  and  _237
REMARK   93  A    between atoms: _240  and  _242
REMARK   94  A    between atoms: _242  and  _243
REMARK   95  A    between atoms: _242  and  _245
REMARK   96  A    between atoms: _245  and  _246
REMARK   97  A    between atoms: _251  and  _253
REMARK   98  A    between atoms: _253  and  _254
REMARK   99  A    between atoms: _253  and  _256
REMARK  100  A    between atoms: _256  and  _257
REMARK  101  A    between atoms: _260  and  _262
REMARK  102  A    between atoms: _262  and  _263
REMARK  103  A    between atoms: _262  and  _265
REMARK  104  A    between atoms: _265  and  _266
REMARK  105  A    between atoms: _269  and  _271
REMARK  106  A    between atoms: _271  and  _272
REMARK  107  A    between atoms: _271  and  _274
REMARK  108  A    between atoms: _274  and  _275
REMARK  109  A    between atoms: _280  and  _282
REMARK  110  A    between atoms: _282  and  _283
REMARK  111  A    between atoms: _282  and  _285
REMARK  112  A    between atoms: _285  and  _286
REMARK  113  A    between atoms: _289  and  _291
REMARK  114  A    between atoms: _291  and  _292
REMARK  115  A    between atoms: _291  and  _294
REMARK  116  A    between atoms: _294  and  _295
REMARK  117  A    between atoms: _300  and  _302
REMARK  118  A    between atoms: _302  and  _303
REMARK  119  A    between atoms: _302  and  _305
REMARK  120  A    between atoms: _305  and  _306
REMARK  121  A    between atoms: _311  and  _313
REMARK  122  A    between atoms: _313  and  _314
REMARK  123  A    between atoms: _313  and  _316
REMARK  124  A    between atoms: _316  and  _317
REMARK  125  A    between atoms: _320  and  _322
REMARK  126  A    between atoms: _322  and  _323
REMARK  127  A    between atoms: _322  and  _325
REMARK  128  A    between atoms: _328  and  _330
REMARK  129  A    between atoms: _330  and  _331
REMARK  130  A    between atoms: _330  and  _333
REMARK  131  A    between atoms: _333  and  _334
REMARK  132  A    between atoms: _337  and  _339
REMARK  133  A    between atoms: _339  and  _340
REMARK  134  A    between atoms: _343  and  _345
REMARK  135  A    between atoms: _345  and  _346
REMARK  136  A    between atoms: _345  and  _348
REMARK  137  A    between atoms: _348  and  _349
REMARK  138  A    between atoms: _352  and  _354
REMARK  139  A    between atoms: _354  and  _355
REMARK  140  A    between atoms: _354  and  _357
REMARK  141  A    between atoms: _357  and  _358
REMARK  142  A    between atoms: _358  and  _359
REMARK  143  A    between atoms: _362  and  _364
REMARK  144  A    between atoms: _364  and  _365
REMARK  145  A    between atoms: _364  and  _367
REMARK  146  A    between atoms: _367  and  _368
REMARK  147  A    between atoms: _373  and  _375
REMARK  148  A    between atoms: _375  and  _376
REMARK  149  A    between atoms: _378  and  _380
REMARK  150  A    between atoms: _380  and  _381
REMARK  151  A    between atoms: _380  and  _383
REMARK  152  A    between atoms: _386  and  _388
REMARK  153  A    between atoms: _388  and  _389
REMARK  154  A    between atoms: _392  and  _394
REMARK  155  A    between atoms: _394  and  _395
REMARK  156  A    between atoms: _394  and  _397
REMARK  157  A    between atoms: _397  and  _398
REMARK  158  A    between atoms: _403  and  _405
REMARK  159  A    between atoms: _405  and  _406
REMARK  160  A    between atoms: _405  and  _408
REMARK  161  A    between atoms: _408  and  _409
REMARK  162  A    between atoms: _409  and  _410
REMARK  163  A    between atoms: _410  and  _411
REMARK  164  A    between atoms: _411  and  _412
REMARK  165  A    between atoms: _416  and  _418
REMARK  166  A    between atoms: _418  and  _419
REMARK  167  A    between atoms: _418  and  _421
REMARK  168  A    between atoms: _421  and  _422
REMARK  169  A    between atoms: _425  and  _427
REMARK  170  A    between atoms: _427  and  _428
REMARK  171  A    between atoms: _427  and  _430
REMARK  172  A    between atoms: _430  and  _431
REMARK  173  A    between atoms: _436  and  _438
REMARK  174  A    between atoms: _438  and  _439
REMARK  175  A    between atoms: _441  and  _443
REMARK  176  A    between atoms: _443  and  _444
REMARK  177  A    between atoms: _443  and  _446
REMARK  178  A    between atoms: _446  and  _447
REMARK  179  A    between atoms: _447  and  _448
REMARK  180  A    between atoms: _448  and  _449
REMARK  181  A    between atoms: _449  and  _450
REMARK  182  A    between atoms: _454  and  _456
REMARK  183  A    between atoms: _456  and  _457
REMARK  184  A    between atoms: _456  and  _459
REMARK  185  A    between atoms: _459  and  _460
REMARK  186  A    between atoms: _460  and  _461
REMARK  187  A    between atoms: _461  and  _462
REMARK  188  A    between atoms: _471  and  _473
REMARK  189  A    between atoms: _473  and  _474
REMARK  190  A    between atoms: _473  and  _476
REMARK  191  A    between atoms: _476  and  _477
REMARK  192  A    between atoms: _482  and  _484
REMARK  193  A    between atoms: _484  and  _485
REMARK  194  A    between atoms: _484  and  _487
REMARK  195  A    between atoms: _487  and  _488
REMARK  196  A    between atoms: _493  and  _494
REMARK  197  A    between atoms: _496  and  _498
REMARK  198  A    between atoms: _498  and  _499
REMARK  199  A    between atoms: _498  and  _501
REMARK  200  A    between atoms: _501  and  _502
REMARK  201  A    between atoms: _502  and  _503
REMARK  202  A    between atoms: _503  and  _504
REMARK  203  A    between atoms: _504  and  _505
REMARK  204  A    between atoms: _509  and  _511
REMARK  205  A    between atoms: _511  and  _512
REMARK  206  A    between atoms: _511  and  _514
REMARK  207  A    between atoms: _514  and  _515
REMARK  208  A    between atoms: _517  and  _519
REMARK  209  A    between atoms: _519  and  _520
REMARK  210  A    between atoms: _519  and  _522
REMARK  211  A    between atoms: _522  and  _523
REMARK  212  A    between atoms: _526  and  _528
REMARK  213  A    between atoms: _528  and  _529
REMARK  214  A    between atoms: _528  and  _531
REMARK  215  A    between atoms: _531  and  _532
REMARK  216  A    between atoms: _532  and  _533
REMARK  217  A    between atoms: _536  and  _538
REMARK  218  A    between atoms: _538  and  _539
REMARK  219  A    between atoms: _542  and  _544
REMARK  220  A    between atoms: _544  and  _545
REMARK  221  A    between atoms: _544  and  _547
REMARK  222  A    between atoms: _547  and  _548
REMARK  223  A    between atoms: _550  and  _552
REMARK  224  A    between atoms: _552  and  _553
REMARK  225  A    between atoms: _555  and  _557
REMARK  226  A    between atoms: _557  and  _558
REMARK  227  A    between atoms: _557  and  _560
REMARK  228  A    between atoms: _560  and  _561
REMARK  229  A    between atoms: _564  and  _566
REMARK  230  A    between atoms: _566  and  _567
REMARK  231  A    between atoms: _569  and  _571
REMARK  232  A    between atoms: _571  and  _572
REMARK  233  A    between atoms: _571  and  _574
REMARK  234  A    between atoms: _574  and  _575
REMARK  235  A    between atoms: _580  and  _582
REMARK  236  A    between atoms: _582  and  _583
REMARK  237  A    between atoms: _582  and  _585
REMARK  238  A    between atoms: _585  and  _586
REMARK  239  A    between atoms: _586  and  _587
REMARK  240  A    between atoms: _594  and  _595
REMARK  241  A    between atoms: _595  and  _611
REMARK  242  A    between atoms: _596  and  _598
REMARK  243  A    between atoms: _598  and  _599
REMARK  244  A    between atoms: _599  and  _600
REMARK  245  A    between atoms: _604  and  _606
REMARK  246  A    between atoms: _606  and  _607
REMARK  247  A    between atoms: _606  and  _614
REMARK  248  A    between atoms: _607  and  _608
REMARK  249  A    between atoms: _608  and  _609
REMARK  250  A    between atoms: _609  and  _610
REMARK  251  A    between atoms: _610  and  _611
REMARK  252  A    between atoms: _616  and  _618
REMARK  253  A    between atoms: _618  and  _619
REMARK  254  A    between atoms: _618  and  _621
REMARK  255  A    between atoms: _621  and  _622
REMARK  256  A    between atoms: _625  and  _627
REMARK  257  A    between atoms: _627  and  _628
REMARK  258  A    between atoms: _630  and  _632
REMARK  259  A    between atoms: _632  and  _633
REMARK  260  A    between atoms: _636  and  _638
REMARK  261  A    between atoms: _638  and  _639
REMARK  262  A    between atoms: _638  and  _641
REMARK  263  A    between atoms: _641  and  _642
REMARK  264  A    between atoms: _647  and  _648
REMARK                            x       y       z     vdW  Elec       q    Type
REMARK                         _______ _______ _______ _____ _____    ______ ____
ROOT
ATOM      1  O   HOH     1      27.640  27.204  27.364  0.00  0.00    +0.000 OA
ENDROOT
TORSDOF 0
REMARK  Name = ../refined-set-2016/2qrq/2qrq_pocket.pdb
REMARK  264 active torsions:
REMARK  status: ('A' for Active; 'I' for Inactive)
REMARK    1  A    between atoms: _1  and  _3
REMARK    2  A    between atoms: _3  and  _4
REMARK    3  A    between atoms: _3  and  _6
REMARK    4  A    between atoms: _6  and  _7
REMARK    5  A    between atoms: _12  and  _13
REMARK    6  A    between atoms: _15  and  _17
REMARK    7  A    between atoms: _17  and  _18
REMARK    8  A    between atoms: _17  and  _20
REMARK    9  A    between atoms: _20  and  _21
REMARK   10  A    between atoms: _24  and  _26
REMARK   11  A    between atoms: _26  and  _27
REMARK   12  A    between atoms: _26  and  _29
REMARK   13  A    between atoms: _29  and  _30
REMARK   14  A    between atoms: _30  and  _31
REMARK   15  A    between atoms: _34  and  _36
REMARK   16  A    between atoms: _36  and  _37
REMARK   17  A    between atoms: _39  and  _41
REMARK   18  A    between atoms: _41  and  _42
REMARK   19  A    between atoms: _41  and  _44
REMARK   20  A    between atoms: _44  and  _45
REMARK   21  A    between atoms: _50  and  _52
REMARK   22  A    between atoms: _52  and  _53
REMARK   23  A    between atoms: _55  and  _57
REMARK   24  A    between atoms: _57  and  _58
REMARK   25  A    between atoms: _60  and  _62
REMARK   26  A    between atoms: _62  and  _63
REMARK   27  A    between atoms: _62  and  _65
REMARK   28  A    between atoms: _65  and  _66
REMARK   29  A    between atoms: _69  and  _71
REMARK   30  A    between atoms: _71  and  _72
REMARK   31  A    between atoms: _74  and  _76
REMARK   32  A    between atoms: _76  and  _77
REMARK   33  A    between atoms: _76  and  _79
REMARK   34  A    between atoms: _79  and  _80
REMARK   35  A    between atoms: _80  and  _81
REMARK   36  A    between atoms: _81  and  _82
REMARK   37  A    between atoms: _91  and  _93
REMARK   38  A    between atoms: _93  and  _94
REMARK   39  A    between atoms: _93  and  _96
REMARK   40  A    between atoms: _96  and  _97
REMARK   41  A    between atoms: _100  and  _102
REMARK   42  A    between atoms: _102  and  _103
REMARK   43  A    between atoms: _106  and  _108
REMARK   44  A    between atoms: _108  and  _109
REMARK   45  A    between atoms: _108  and  _111
REMARK   46  A    between atoms: _111  and  _112
REMARK   47  A    between atoms: _118  and  _120
REMARK   48  A    between atoms: _120  and  _121
REMARK   49  A    between atoms: _120  and  _123
REMARK   50  A    between atoms: _123  and  _124
REMARK   51  A    between atoms: _127  and  _129
REMARK   52  A    between atoms: _129  and  _130
REMARK   53  A    between atoms: _129  and  _132
REMARK   54  A    between atoms: _132  and  _133
REMARK   55  A    between atoms: _138  and  _139
REMARK   56  A    between atoms: _142  and  _143
REMARK   57  A    between atoms: _148  and  _150
REMARK   58  A    between atoms: _150  and  _151
REMARK   59  A    between atoms: _150  and  _153
REMARK   60  A    between atoms: _153  and  _154
REMARK   61  A    between atoms: _159  and  _161
REMARK   62  A    between atoms: _161  and  _162
REMARK   63  A    between atoms: _161  and  _164
REMARK   64  A    between atoms: _164  and  _165
REMARK   65  A    between atoms: _168  and  _170
REMARK   66  A    between atoms: _170  and  _171
REMARK   67  A    between atoms: _170  and  _173
REMARK   68  A    between atoms: _173  and  _174
REMARK   69  A    between atoms: _179  and  _181
REMARK   70  A    between atoms: _181  and  _182
REMARK   71  A    between atoms: _181  and  _184
REMARK   72  A    between atoms: _184  and  _185
REMARK   73  A    between atoms: _191  and  _193
REMARK   74  A    between atoms: _193  and  _194
REMARK   75  A    between atoms: _193  and  _196
REMARK   76  A    between atoms: _196  and  _197
REMARK   77  A    between atoms: _203  and  _205
REMARK   78  A    between atoms: _205  and  _206
REMARK   79  A    between atoms: _205  and  _208
REMARK   80  A    between atoms: _208  and  _209
REMARK   81  A    between atoms: _209  and  _210
REMARK   82  A    between atoms: _213  and  _215
REMARK   83  A    between atoms: _215  and  _216
REMARK   84  A    between atoms: _215  and  _218
REMARK   85  A    between atoms: _218  and  _219
REMARK   86  A    between atoms: _219  and  _220
REMARK   87  A    between atoms: _220  and  _221
REMARK   88  A    between atoms: _230  and  _232
REMARK   89  A    between atoms: _232  and  _233
REMARK   90  A    between atoms: _232  and  _235
REMARK   91  A    between atoms: _235  and  _236
REMARK   92  A    between atoms: _236  and  _237
REMARK   93  A    between atoms: _240  and  _242
REMARK   94  A    between atoms: _242  and  _243
REMARK   95  A    between atoms: _242  and  _245
REMARK   96  A    between atoms: _245  and  _246
REMARK   97  A    between atoms: _251  and  _253
REMARK   98  A    between atoms: _253  and  _254
REMARK   99  A    between atoms: _253  and  _256
REMARK  100  A    between atoms: _256  and  _257
REMARK  101  A    between atoms: _260  and  _262
REMARK  102  A    between atoms: _262  and  _263
REMARK  103  A    between atoms: _262  and  _265
REMARK  104  A    between atoms: _265  and  _266
REMARK  105  A    between atoms: _269  and  _271
REMARK  106  A    between atoms: _271  and  _272
REMARK  107  A    between atoms: _271  and  _274
REMARK  108  A    between atoms: _274  and  _275
REMARK  109  A    between atoms: _280  and  _282
REMARK  110  A    between atoms: _282  and  _283
REMARK  111  A    between atoms: _282  and  _285
REMARK  112  A    between atoms: _285  and  _286
REMARK  113  A    between atoms: _289  and  _291
REMARK  114  A    between atoms: _291  and  _292
REMARK  115  A    between atoms: _291  and  _294
REMARK  116  A    between atoms: _294  and  _295
REMARK  117  A    between atoms: _300  and  _302
REMARK  118  A    between atoms: _302  and  _303
REMARK  119  A    between atoms: _302  and  _305
REMARK  120  A    between atoms: _305  and  _306
REMARK  121  A    between atoms: _311  and  _313
REMARK  122  A    between atoms: _313  and  _314
REMARK  123  A    between atoms: _313  and  _316
REMARK  124  A    between atoms: _316  and  _317
REMARK  125  A    between atoms: _320  and  _322
REMARK  126  A    between atoms: _322  and  _323
REMARK  127  A    between atoms: _322  and  _325
REMARK  128  A    between atoms: _328  and  _330
REMARK  129  A    between atoms: _330  and  _331
REMARK  130  A    between atoms: _330  and  _333
REMARK  131  A    between atoms: _333  and  _334
REMARK  132  A    between atoms: _337  and  _339
REMARK  133  A    between atoms: _339  and  _340
REMARK  134  A    between atoms: _343  and  _345
REMARK  135  A    between atoms: _345  and  _346
REMARK  136  A    between atoms: _345  and  _348
REMARK  137  A    between atoms: _348  and  _349
REMARK  138  A    between atoms: _352  and  _354
REMARK  139  A    between atoms: _354  and  _355
REMARK  140  A    between atoms: _354  and  _357
REMARK  141  A    between atoms: _357  and  _358
REMARK  142  A    between atoms: _358  and  _359
REMARK  143  A    between atoms: _362  and  _364
REMARK  144  A    between atoms: _364  and  _365
REMARK  145  A    between atoms: _364  and  _367
REMARK  146  A    between atoms: _367  and  _368
REMARK  147  A    between atoms: _373  and  _375
REMARK  148  A    between atoms: _375  and  _376
REMARK  149  A    between atoms: _378  and  _380
REMARK  150  A    between atoms: _380  and  _381
REMARK  151  A    between atoms: _380  and  _383
REMARK  152  A    between atoms: _386  and  _388
REMARK  153  A    between atoms: _388  and  _389
REMARK  154  A    between atoms: _392  and  _394
REMARK  155  A    between atoms: _394  and  _395
REMARK  156  A    between atoms: _394  and  _397
REMARK  157  A    between atoms: _397  and  _398
REMARK  158  A    between atoms: _403  and  _405
REMARK  159  A    between atoms: _405  and  _406
REMARK  160  A    between atoms: _405  and  _408
REMARK  161  A    between atoms: _408  and  _409
REMARK  162  A    between atoms: _409  and  _410
REMARK  163  A    between atoms: _410  and  _411
REMARK  164  A    between atoms: _411  and  _412
REMARK  165  A    between atoms: _416  and  _418
REMARK  166  A    between atoms: _418  and  _419
REMARK  167  A    between atoms: _418  and  _421
REMARK  168  A    between atoms: _421  and  _422
REMARK  169  A    between atoms: _425  and  _427
REMARK  170  A    between atoms: _427  and  _428
REMARK  171  A    between atoms: _427  and  _430
REMARK  172  A    between atoms: _430  and  _431
REMARK  173  A    between atoms: _436  and  _438
REMARK  174  A    between atoms: _438  and  _439
REMARK  175  A    between atoms: _441  and  _443
REMARK  176  A    between atoms: _443  and  _444
REMARK  177  A    between atoms: _443  and  _446
REMARK  178  A    between atoms: _446  and  _447
REMARK  179  A    between atoms: _447  and  _448
REMARK  180  A    between atoms: _448  and  _449
REMARK  181  A    between atoms: _449  and  _450
REMARK  182  A    between atoms: _454  and  _456
REMARK  183  A    between atoms: _456  and  _457
REMARK  184  A    between atoms: _456  and  _459
REMARK  185  A    between atoms: _459  and  _460
REMARK  186  A    between atoms: _460  and  _461
REMARK  187  A    between atoms: _461  and  _462
REMARK  188  A    between atoms: _471  and  _473
REMARK  189  A    between atoms: _473  and  _474
REMARK  190  A    between atoms: _473  and  _476
REMARK  191  A    between atoms: _476  and  _477
REMARK  192  A    between atoms: _482  and  _484
REMARK  193  A    between atoms: _484  and  _485
REMARK  194  A    between atoms: _484  and  _487
REMARK  195  A    between atoms: _487  and  _488
REMARK  196  A    between atoms: _493  and  _494
REMARK  197  A    between atoms: _496  and  _498
REMARK  198  A    between atoms: _498  and  _499
REMARK  199  A    between atoms: _498  and  _501
REMARK  200  A    between atoms: _501  and  _502
REMARK  201  A    between atoms: _502  and  _503
REMARK  202  A    between atoms: _503  and  _504
REMARK  203  A    between atoms: _504  and  _505
REMARK  204  A    between atoms: _509  and  _511
REMARK  205  A    between atoms: _511  and  _512
REMARK  206  A    between atoms: _511  and  _514
REMARK  207  A    between atoms: _514  and  _515
REMARK  208  A    between atoms: _517  and  _519
REMARK  209  A    between atoms: _519  and  _520
REMARK  210  A    between atoms: _519  and  _522
REMARK  211  A    between atoms: _522  and  _523
REMARK  212  A    between atoms: _526  and  _528
REMARK  213  A    between atoms: _528  and  _529
REMARK  214  A    between atoms: _528  and  _531
REMARK  215  A    between atoms: _531  and  _532
REMARK  216  A    between atoms: _532  and  _533
REMARK  217  A    between atoms: _536  and  _538
REMARK  218  A    between atoms: _538  and  _539
REMARK  219  A    between atoms: _542  and  _544
REMARK  220  A    between atoms: _544  and  _545
REMARK  221  A    between atoms: _544  and  _547
REMARK  222  A    between atoms: _547  and  _548
REMARK  223  A    between atoms: _550  and  _552
REMARK  224  A    between atoms: _552  and  _553
REMARK  225  A    between atoms: _555  and  _557
REMARK  226  A    between atoms: _557  and  _558
REMARK  227  A    between atoms: _557  and  _560
REMARK  228  A    between atoms: _560  and  _561
REMARK  229  A    between atoms: _564  and  _566
REMARK  230  A    between atoms: _566  and  _567
REMARK  231  A    between atoms: _569  and  _571
REMARK  232  A    between atoms: _571  and  _572
REMARK  233  A    between atoms: _571  and  _574
REMARK  234  A    between atoms: _574  and  _575
REMARK  235  A    between atoms: _580  and  _582
REMARK  236  A    between atoms: _582  and  _583
REMARK  237  A    between atoms: _582  and  _585
REMARK  238  A    between atoms: _585  and  _586
REMARK  239  A    between atoms: _586  and  _587
REMARK  240  A    between atoms: _594  and  _595
REMARK  241  A    between atoms: _595  and  _611
REMARK  242  A    between atoms: _596  and  _598
REMARK  243  A    between atoms: _598  and  _599
REMARK  244  A    between atoms: _599  and  _600
REMARK  245  A    between atoms: _604  and  _606
REMARK  246  A    between atoms: _606  and  _607
REMARK  247  A    between atoms: _606  and  _614
REMARK  248  A    between atoms: _607  and  _608
REMARK  249  A    between atoms: _608  and  _609
REMARK  250  A    between atoms: _609  and  _610
REMARK  251  A    between atoms: _610  and  _611
REMARK  252  A    between atoms: _616  and  _618
REMARK  253  A    between atoms: _618  and  _619
REMARK  254  A    between atoms: _618  and  _621
REMARK  255  A    between atoms: _621  and  _622
REMARK  256  A    between atoms: _625  and  _627
REMARK  257  A    between atoms: _627  and  _628
REMARK  258  A    between atoms: _630  and  _632
REMARK  259  A    between atoms: _632  and  _633
REMARK  260  A    between atoms: _636  and  _638
REMARK  261  A    between atoms: _638  and  _639
REMARK  262  A    between atoms: _638  and  _641
REMARK  263  A    between atoms: _641  and  _642
REMARK  264  A    between atoms: _647  and  _648
REMARK                            x       y       z     vdW  Elec       q    Type
REMARK                         _______ _______ _______ _____ _____    ______ ____
ROOT
ATOM      1  O   HOH     1      26.510  23.378  21.276  0.00  0.00    +0.000 OA
ENDROOT
TORSDOF 0
REMARK  Name = ../refined-set-2016/2qrq/2qrq_pocket.pdb
REMARK  264 active torsions:
REMARK  status: ('A' for Active; 'I' for Inactive)
REMARK    1  A    between atoms: _1  and  _3
REMARK    2  A    between atoms: _3  and  _4
REMARK    3  A    between atoms: _3  and  _6
REMARK    4  A    between atoms: _6  and  _7
REMARK    5  A    between atoms: _12  and  _13
REMARK    6  A    between atoms: _15  and  _17
REMARK    7  A    between atoms: _17  and  _18
REMARK    8  A    between atoms: _17  and  _20
REMARK    9  A    between atoms: _20  and  _21
REMARK   10  A    between atoms: _24  and  _26
REMARK   11  A    between atoms: _26  and  _27
REMARK   12  A    between atoms: _26  and  _29
REMARK   13  A    between atoms: _29  and  _30
REMARK   14  A    between atoms: _30  and  _31
REMARK   15  A    between atoms: _34  and  _36
REMARK   16  A    between atoms: _36  and  _37
REMARK   17  A    between atoms: _39  and  _41
REMARK   18  A    between atoms: _41  and  _42
REMARK   19  A    between atoms: _41  and  _44
REMARK   20  A    between atoms: _44  and  _45
REMARK   21  A    between atoms: _50  and  _52
REMARK   22  A    between atoms: _52  and  _53
REMARK   23  A    between atoms: _55  and  _57
REMARK   24  A    between atoms: _57  and  _58
REMARK   25  A    between atoms: _60  and  _62
REMARK   26  A    between atoms: _62  and  _63
REMARK   27  A    between atoms: _62  and  _65
REMARK   28  A    between atoms: _65  and  _66
REMARK   29  A    between atoms: _69  and  _71
REMARK   30  A    between atoms: _71  and  _72
REMARK   31  A    between atoms: _74  and  _76
REMARK   32  A    between atoms: _76  and  _77
REMARK   33  A    between atoms: _76  and  _79
REMARK   34  A    between atoms: _79  and  _80
REMARK   35  A    between atoms: _80  and  _81
REMARK   36  A    between atoms: _81  and  _82
REMARK   37  A    between atoms: _91  and  _93
REMARK   38  A    between atoms: _93  and  _94
REMARK   39  A    between atoms: _93  and  _96
REMARK   40  A    between atoms: _96  and  _97
REMARK   41  A    between atoms: _100  and  _102
REMARK   42  A    between atoms: _102  and  _103
REMARK   43  A    between atoms: _106  and  _108
REMARK   44  A    between atoms: _108  and  _109
REMARK   45  A    between atoms: _108  and  _111
REMARK   46  A    between atoms: _111  and  _112
REMARK   47  A    between atoms: _118  and  _120
REMARK   48  A    between atoms: _120  and  _121
REMARK   49  A    between atoms: _120  and  _123
REMARK   50  A    between atoms: _123  and  _124
REMARK   51  A    between atoms: _127  and  _129
REMARK   52  A    between atoms: _129  and  _130
REMARK   53  A    between atoms: _129  and  _132
REMARK   54  A    between atoms: _132  and  _133
REMARK   55  A    between atoms: _138  and  _139
REMARK   56  A    between atoms: _142  and  _143
REMARK   57  A    between atoms: _148  and  _150
REMARK   58  A    between atoms: _150  and  _151
REMARK   59  A    between atoms: _150  and  _153
REMARK   60  A    between atoms: _153  and  _154
REMARK   61  A    between atoms: _159  and  _161
REMARK   62  A    between atoms: _161  and  _162
REMARK   63  A    between atoms: _161  and  _164
REMARK   64  A    between atoms: _164  and  _165
REMARK   65  A    between atoms: _168  and  _170
REMARK   66  A    between atoms: _170  and  _171
REMARK   67  A    between atoms: _170  and  _173
REMARK   68  A    between atoms: _173  and  _174
REMARK   69  A    between atoms: _179  and  _181
REMARK   70  A    between atoms: _181  and  _182
REMARK   71  A    between atoms: _181  and  _184
REMARK   72  A    between atoms: _184  and  _185
REMARK   73  A    between atoms: _191  and  _193
REMARK   74  A    between atoms: _193  and  _194
REMARK   75  A    between atoms: _193  and  _196
REMARK   76  A    between atoms: _196  and  _197
REMARK   77  A    between atoms: _203  and  _205
REMARK   78  A    between atoms: _205  and  _206
REMARK   79  A    between atoms: _205  and  _208
REMARK   80  A    between atoms: _208  and  _209
REMARK   81  A    between atoms: _209  and  _210
REMARK   82  A    between atoms: _213  and  _215
REMARK   83  A    between atoms: _215  and  _216
REMARK   84  A    between atoms: _215  and  _218
REMARK   85  A    between atoms: _218  and  _219
REMARK   86  A    between atoms: _219  and  _220
REMARK   87  A    between atoms: _220  and  _221
REMARK   88  A    between atoms: _230  and  _232
REMARK   89  A    between atoms: _232  and  _233
REMARK   90  A    between atoms: _232  and  _235
REMARK   91  A    between atoms: _235  and  _236
REMARK   92  A    between atoms: _236  and  _237
REMARK   93  A    between atoms: _240  and  _242
REMARK   94  A    between atoms: _242  and  _243
REMARK   95  A    between atoms: _242  and  _245
REMARK   96  A    between atoms: _245  and  _246
REMARK   97  A    between atoms: _251  and  _253
REMARK   98  A    between atoms: _253  and  _254
REMARK   99  A    between atoms: _253  and  _256
REMARK  100  A    between atoms: _256  and  _257
REMARK  101  A    between atoms: _260  and  _262
REMARK  102  A    between atoms: _262  and  _263
REMARK  103  A    between atoms: _262  and  _265
REMARK  104  A    between atoms: _265  and  _266
REMARK  105  A    between atoms: _269  and  _271
REMARK  106  A    between atoms: _271  and  _272
REMARK  107  A    between atoms: _271  and  _274
REMARK  108  A    between atoms: _274  and  _275
REMARK  109  A    between atoms: _280  and  _282
REMARK  110  A    between atoms: _282  and  _283
REMARK  111  A    between atoms: _282  and  _285
REMARK  112  A    between atoms: _285  and  _286
REMARK  113  A    between atoms: _289  and  _291
REMARK  114  A    between atoms: _291  and  _292
REMARK  115  A    between atoms: _291  and  _294
REMARK  116  A    between atoms: _294  and  _295
REMARK  117  A    between atoms: _300  and  _302
REMARK  118  A    between atoms: _302  and  _303
REMARK  119  A    between atoms: _302  and  _305
REMARK  120  A    between atoms: _305  and  _306
REMARK  121  A    between atoms: _311  and  _313
REMARK  122  A    between atoms: _313  and  _314
REMARK  123  A    between atoms: _313  and  _316
REMARK  124  A    between atoms: _316  and  _317
REMARK  125  A    between atoms: _320  and  _322
REMARK  126  A    between atoms: _322  and  _323
REMARK  127  A    between atoms: _322  and  _325
REMARK  128  A    between atoms: _328  and  _330
REMARK  129  A    between atoms: _330  and  _331
REMARK  130  A    between atoms: _330  and  _333
REMARK  131  A    between atoms: _333  and  _334
REMARK  132  A    between atoms: _337  and  _339
REMARK  133  A    between atoms: _339  and  _340
REMARK  134  A    between atoms: _343  and  _345
REMARK  135  A    between atoms: _345  and  _346
REMARK  136  A    between atoms: _345  and  _348
REMARK  137  A    between atoms: _348  and  _349
REMARK  138  A    between atoms: _352  and  _354
REMARK  139  A    between atoms: _354  and  _355
REMARK  140  A    between atoms: _354  and  _357
REMARK  141  A    between atoms: _357  and  _358
REMARK  142  A    between atoms: _358  and  _359
REMARK  143  A    between atoms: _362  and  _364
REMARK  144  A    between atoms: _364  and  _365
REMARK  145  A    between atoms: _364  and  _367
REMARK  146  A    between atoms: _367  and  _368
REMARK  147  A    between atoms: _373  and  _375
REMARK  148  A    between atoms: _375  and  _376
REMARK  149  A    between atoms: _378  and  _380
REMARK  150  A    between atoms: _380  and  _381
REMARK  151  A    between atoms: _380  and  _383
REMARK  152  A    between atoms: _386  and  _388
REMARK  153  A    between atoms: _388  and  _389
REMARK  154  A    between atoms: _392  and  _394
REMARK  155  A    between atoms: _394  and  _395
REMARK  156  A    between atoms: _394  and  _397
REMARK  157  A    between atoms: _397  and  _398
REMARK  158  A    between atoms: _403  and  _405
REMARK  159  A    between atoms: _405  and  _406
REMARK  160  A    between atoms: _405  and  _408
REMARK  161  A    between atoms: _408  and  _409
REMARK  162  A    between atoms: _409  and  _410
REMARK  163  A    between atoms: _410  and  _411
REMARK  164  A    between atoms: _411  and  _412
REMARK  165  A    between atoms: _416  and  _418
REMARK  166  A    between atoms: _418  and  _419
REMARK  167  A    between atoms: _418  and  _421
REMARK  168  A    between atoms: _421  and  _422
REMARK  169  A    between atoms: _425  and  _427
REMARK  170  A    between atoms: _427  and  _428
REMARK  171  A    between atoms: _427  and  _430
REMARK  172  A    between atoms: _430  and  _431
REMARK  173  A    between atoms: _436  and  _438
REMARK  174  A    between atoms: _438  and  _439
REMARK  175  A    between atoms: _441  and  _443
REMARK  176  A    between atoms: _443  and  _444
REMARK  177  A    between atoms: _443  and  _446
REMARK  178  A    between atoms: _446  and  _447
REMARK  179  A    between atoms: _447  and  _448
REMARK  180  A    between atoms: _448  and  _449
REMARK  181  A    between atoms: _449  and  _450
REMARK  182  A    between atoms: _454  and  _456
REMARK  183  A    between atoms: _456  and  _457
REMARK  184  A    between atoms: _456  and  _459
REMARK  185  A    between atoms: _459  and  _460
REMARK  186  A    between atoms: _460  and  _461
REMARK  187  A    between atoms: _461  and  _462
REMARK  188  A    between atoms: _471  and  _473
REMARK  189  A    between atoms: _473  and  _474
REMARK  190  A    between atoms: _473  and  _476
REMARK  191  A    between atoms: _476  and  _477
REMARK  192  A    between atoms: _482  and  _484
REMARK  193  A    between atoms: _484  and  _485
REMARK  194  A    between atoms: _484  and  _487
REMARK  195  A    between atoms: _487  and  _488
REMARK  196  A    between atoms: _493  and  _494
REMARK  197  A    between atoms: _496  and  _498
REMARK  198  A    between atoms: _498  and  _499
REMARK  199  A    between atoms: _498  and  _501
REMARK  200  A    between atoms: _501  and  _502
REMARK  201  A    between atoms: _502  and  _503
REMARK  202  A    between atoms: _503  and  _504
REMARK  203  A    between atoms: _504  and  _505
REMARK  204  A    between atoms: _509  and  _511
REMARK  205  A    between atoms: _511  and  _512
REMARK  206  A    between atoms: _511  and  _514
REMARK  207  A    between atoms: _514  and  _515
REMARK  208  A    between atoms: _517  and  _519
REMARK  209  A    between atoms: _519  and  _520
REMARK  210  A    between atoms: _519  and  _522
REMARK  211  A    between atoms: _522  and  _523
REMARK  212  A    between atoms: _526  and  _528
REMARK  213  A    between atoms: _528  and  _529
REMARK  214  A    between atoms: _528  and  _531
REMARK  215  A    between atoms: _531  and  _532
REMARK  216  A    between atoms: _532  and  _533
REMARK  217  A    between atoms: _536  and  _538
REMARK  218  A    between atoms: _538  and  _539
REMARK  219  A    between atoms: _542  and  _544
REMARK  220  A    between atoms: _544  and  _545
REMARK  221  A    between atoms: _544  and  _547
REMARK  222  A    between atoms: _547  and  _548
REMARK  223  A    between atoms: _550  and  _552
REMARK  224  A    between atoms: _552  and  _553
REMARK  225  A    between atoms: _555  and  _557
REMARK  226  A    between atoms: _557  and  _558
REMARK  227  A    between atoms: _557  and  _560
REMARK  228  A    between atoms: _560  and  _561
REMARK  229  A    between atoms: _564  and  _566
REMARK  230  A    between atoms: _566  and  _567
REMARK  231  A    between atoms: _569  and  _571
REMARK  232  A    between atoms: _571  and  _572
REMARK  233  A    between atoms: _571  and  _574
REMARK  234  A    between atoms: _574  and  _575
REMARK  235  A    between atoms: _580  and  _582
REMARK  236  A    between atoms: _582  and  _583
REMARK  237  A    between atoms: _582  and  _585
REMARK  238  A    between atoms: _585  and  _586
REMARK  239  A    between atoms: _586  and  _587
REMARK  240  A    between atoms: _594  and  _595
REMARK  241  A    between atoms: _595  and  _611
REMARK  242  A    between atoms: _596  and  _598
REMARK  243  A    between atoms: _598  and  _599
REMARK  244  A    between atoms: _599  and  _600
REMARK  245  A    between atoms: _604  and  _606
REMARK  246  A    between atoms: _606  and  _607
REMARK  247  A    between atoms: _606  and  _614
REMARK  248  A    between atoms: _607  and  _608
REMARK  249  A    between atoms: _608  and  _609
REMARK  250  A    between atoms: _609  and  _610
REMARK  251  A    between atoms: _610  and  _611
REMARK  252  A    between atoms: _616  and  _618
REMARK  253  A    between atoms: _618  and  _619
REMARK  254  A    between atoms: _618  and  _621
REMARK  255  A    between atoms: _621  and  _622
REMARK  256  A    between atoms: _625  and  _627
REMARK  257  A    between atoms: _627  and  _628
REMARK  258  A    between atoms: _630  and  _632
REMARK  259  A    between atoms: _632  and  _633
REMARK  260  A    between atoms: _636  and  _638
REMARK  261  A    between atoms: _638  and  _639
REMARK  262  A    between atoms: _638  and  _641
REMARK  263  A    between atoms: _641  and  _642
REMARK  264  A    between atoms: _647  and  _648
REMARK                            x       y       z     vdW  Elec       q    Type
REMARK                         _______ _______ _______ _____ _____    ______ ____
ROOT
ATOM      1  O   HOH     1      30.553  23.591  32.670  0.00  0.00    +0.000 OA
ENDROOT
TORSDOF 0
REMARK  Name = ../refined-set-2016/2qrq/2qrq_pocket.pdb
REMARK  264 active torsions:
REMARK  status: ('A' for Active; 'I' for Inactive)
REMARK    1  A    between atoms: _1  and  _3
REMARK    2  A    between atoms: _3  and  _4
REMARK    3  A    between atoms: _3  and  _6
REMARK    4  A    between atoms: _6  and  _7
REMARK    5  A    between atoms: _12  and  _13
REMARK    6  A    between atoms: _15  and  _17
REMARK    7  A    between atoms: _17  and  _18
REMARK    8  A    between atoms: _17  and  _20
REMARK    9  A    between atoms: _20  and  _21
REMARK   10  A    between atoms: _24  and  _26
REMARK   11  A    between atoms: _26  and  _27
REMARK   12  A    between atoms: _26  and  _29
REMARK   13  A    between atoms: _29  and  _30
REMARK   14  A    between atoms: _30  and  _31
REMARK   15  A    between atoms: _34  and  _36
REMARK   16  A    between atoms: _36  and  _37
REMARK   17  A    between atoms: _39  and  _41
REMARK   18  A    between atoms: _41  and  _42
REMARK   19  A    between atoms: _41  and  _44
REMARK   20  A    between atoms: _44  and  _45
REMARK   21  A    between atoms: _50  and  _52
REMARK   22  A    between atoms: _52  and  _53
REMARK   23  A    between atoms: _55  and  _57
REMARK   24  A    between atoms: _57  and  _58
REMARK   25  A    between atoms: _60  and  _62
REMARK   26  A    between atoms: _62  and  _63
REMARK   27  A    between atoms: _62  and  _65
REMARK   28  A    between atoms: _65  and  _66
REMARK   29  A    between atoms: _69  and  _71
REMARK   30  A    between atoms: _71  and  _72
REMARK   31  A    between atoms: _74  and  _76
REMARK   32  A    between atoms: _76  and  _77
REMARK   33  A    between atoms: _76  and  _79
REMARK   34  A    between atoms: _79  and  _80
REMARK   35  A    between atoms: _80  and  _81
REMARK   36  A    between atoms: _81  and  _82
REMARK   37  A    between atoms: _91  and  _93
REMARK   38  A    between atoms: _93  and  _94
REMARK   39  A    between atoms: _93  and  _96
REMARK   40  A    between atoms: _96  and  _97
REMARK   41  A    between atoms: _100  and  _102
REMARK   42  A    between atoms: _102  and  _103
REMARK   43  A    between atoms: _106  and  _108
REMARK   44  A    between atoms: _108  and  _109
REMARK   45  A    between atoms: _108  and  _111
REMARK   46  A    between atoms: _111  and  _112
REMARK   47  A    between atoms: _118  and  _120
REMARK   48  A    between atoms: _120  and  _121
REMARK   49  A    between atoms: _120  and  _123
REMARK   50  A    between atoms: _123  and  _124
REMARK   51  A    between atoms: _127  and  _129
REMARK   52  A    between atoms: _129  and  _130
REMARK   53  A    between atoms: _129  and  _132
REMARK   54  A    between atoms: _132  and  _133
REMARK   55  A    between atoms: _138  and  _139
REMARK   56  A    between atoms: _142  and  _143
REMARK   57  A    between atoms: _148  and  _150
REMARK   58  A    between atoms: _150  and  _151
REMARK   59  A    between atoms: _150  and  _153
REMARK   60  A    between atoms: _153  and  _154
REMARK   61  A    between atoms: _159  and  _161
REMARK   62  A    between atoms: _161  and  _162
REMARK   63  A    between atoms: _161  and  _164
REMARK   64  A    between atoms: _164  and  _165
REMARK   65  A    between atoms: _168  and  _170
REMARK   66  A    between atoms: _170  and  _171
REMARK   67  A    between atoms: _170  and  _173
REMARK   68  A    between atoms: _173  and  _174
REMARK   69  A    between atoms: _179  and  _181
REMARK   70  A    between atoms: _181  and  _182
REMARK   71  A    between atoms: _181  and  _184
REMARK   72  A    between atoms: _184  and  _185
REMARK   73  A    between atoms: _191  and  _193
REMARK   74  A    between atoms: _193  and  _194
REMARK   75  A    between atoms: _193  and  _196
REMARK   76  A    between atoms: _196  and  _197
REMARK   77  A    between atoms: _203  and  _205
REMARK   78  A    between atoms: _205  and  _206
REMARK   79  A    between atoms: _205  and  _208
REMARK   80  A    between atoms: _208  and  _209
REMARK   81  A    between atoms: _209  and  _210
REMARK   82  A    between atoms: _213  and  _215
REMARK   83  A    between atoms: _215  and  _216
REMARK   84  A    between atoms: _215  and  _218
REMARK   85  A    between atoms: _218  and  _219
REMARK   86  A    between atoms: _219  and  _220
REMARK   87  A    between atoms: _220  and  _221
REMARK   88  A    between atoms: _230  and  _232
REMARK   89  A    between atoms: _232  and  _233
REMARK   90  A    between atoms: _232  and  _235
REMARK   91  A    between atoms: _235  and  _236
REMARK   92  A    between atoms: _236  and  _237
REMARK   93  A    between atoms: _240  and  _242
REMARK   94  A    between atoms: _242  and  _243
REMARK   95  A    between atoms: _242  and  _245
REMARK   96  A    between atoms: _245  and  _246
REMARK   97  A    between atoms: _251  and  _253
REMARK   98  A    between atoms: _253  and  _254
REMARK   99  A    between atoms: _253  and  _256
REMARK  100  A    between atoms: _256  and  _257
REMARK  101  A    between atoms: _260  and  _262
REMARK  102  A    between atoms: _262  and  _263
REMARK  103  A    between atoms: _262  and  _265
REMARK  104  A    between atoms: _265  and  _266
REMARK  105  A    between atoms: _269  and  _271
REMARK  106  A    between atoms: _271  and  _272
REMARK  107  A    between atoms: _271  and  _274
REMARK  108  A    between atoms: _274  and  _275
REMARK  109  A    between atoms: _280  and  _282
REMARK  110  A    between atoms: _282  and  _283
REMARK  111  A    between atoms: _282  and  _285
REMARK  112  A    between atoms: _285  and  _286
REMARK  113  A    between atoms: _289  and  _291
REMARK  114  A    between atoms: _291  and  _292
REMARK  115  A    between atoms: _291  and  _294
REMARK  116  A    between atoms: _294  and  _295
REMARK  117  A    between atoms: _300  and  _302
REMARK  118  A    between atoms: _302  and  _303
REMARK  119  A    between atoms: _302  and  _305
REMARK  120  A    between atoms: _305  and  _306
REMARK  121  A    between atoms: _311  and  _313
REMARK  122  A    between atoms: _313  and  _314
REMARK  123  A    between atoms: _313  and  _316
REMARK  124  A    between atoms: _316  and  _317
REMARK  125  A    between atoms: _320  and  _322
REMARK  126  A    between atoms: _322  and  _323
REMARK  127  A    between atoms: _322  and  _325
REMARK  128  A    between atoms: _328  and  _330
REMARK  129  A    between atoms: _330  and  _331
REMARK  130  A    between atoms: _330  and  _333
REMARK  131  A    between atoms: _333  and  _334
REMARK  132  A    between atoms: _337  and  _339
REMARK  133  A    between atoms: _339  and  _340
REMARK  134  A    between atoms: _343  and  _345
REMARK  135  A    between atoms: _345  and  _346
REMARK  136  A    between atoms: _345  and  _348
REMARK  137  A    between atoms: _348  and  _349
REMARK  138  A    between atoms: _352  and  _354
REMARK  139  A    between atoms: _354  and  _355
REMARK  140  A    between atoms: _354  and  _357
REMARK  141  A    between atoms: _357  and  _358
REMARK  142  A    between atoms: _358  and  _359
REMARK  143  A    between atoms: _362  and  _364
REMARK  144  A    between atoms: _364  and  _365
REMARK  145  A    between atoms: _364  and  _367
REMARK  146  A    between atoms: _367  and  _368
REMARK  147  A    between atoms: _373  and  _375
REMARK  148  A    between atoms: _375  and  _376
REMARK  149  A    between atoms: _378  and  _380
REMARK  150  A    between atoms: _380  and  _381
REMARK  151  A    between atoms: _380  and  _383
REMARK  152  A    between atoms: _386  and  _388
REMARK  153  A    between atoms: _388  and  _389
REMARK  154  A    between atoms: _392  and  _394
REMARK  155  A    between atoms: _394  and  _395
REMARK  156  A    between atoms: _394  and  _397
REMARK  157  A    between atoms: _397  and  _398
REMARK  158  A    between atoms: _403  and  _405
REMARK  159  A    between atoms: _405  and  _406
REMARK  160  A    between atoms: _405  and  _408
REMARK  161  A    between atoms: _408  and  _409
REMARK  162  A    between atoms: _409  and  _410
REMARK  163  A    between atoms: _410  and  _411
REMARK  164  A    between atoms: _411  and  _412
REMARK  165  A    between atoms: _416  and  _418
REMARK  166  A    between atoms: _418  and  _419
REMARK  167  A    between atoms: _418  and  _421
REMARK  168  A    between atoms: _421  and  _422
REMARK  169  A    between atoms: _425  and  _427
REMARK  170  A    between atoms: _427  and  _428
REMARK  171  A    between atoms: _427  and  _430
REMARK  172  A    between atoms: _430  and  _431
REMARK  173  A    between atoms: _436  and  _438
REMARK  174  A    between atoms: _438  and  _439
REMARK  175  A    between atoms: _441  and  _443
REMARK  176  A    between atoms: _443  and  _444
REMARK  177  A    between atoms: _443  and  _446
REMARK  178  A    between atoms: _446  and  _447
REMARK  179  A    between atoms: _447  and  _448
REMARK  180  A    between atoms: _448  and  _449
REMARK  181  A    between atoms: _449  and  _450
REMARK  182  A    between atoms: _454  and  _456
REMARK  183  A    between atoms: _456  and  _457
REMARK  184  A    between atoms: _456  and  _459
REMARK  185  A    between atoms: _459  and  _460
REMARK  186  A    between atoms: _460  and  _461
REMARK  187  A    between atoms: _461  and  _462
REMARK  188  A    between atoms: _471  and  _473
REMARK  189  A    between atoms: _473  and  _474
REMARK  190  A    between atoms: _473  and  _476
REMARK  191  A    between atoms: _476  and  _477
REMARK  192  A    between atoms: _482  and  _484
REMARK  193  A    between atoms: _484  and  _485
REMARK  194  A    between atoms: _484  and  _487
REMARK  195  A    between atoms: _487  and  _488
REMARK  196  A    between atoms: _493  and  _494
REMARK  197  A    between atoms: _496  and  _498
REMARK  198  A    between atoms: _498  and  _499
REMARK  199  A    between atoms: _498  and  _501
REMARK  200  A    between atoms: _501  and  _502
REMARK  201  A    between atoms: _502  and  _503
REMARK  202  A    between atoms: _503  and  _504
REMARK  203  A    between atoms: _504  and  _505
REMARK  204  A    between atoms: _509  and  _511
REMARK  205  A    between atoms: _511  and  _512
REMARK  206  A    between atoms: _511  and  _514
REMARK  207  A    between atoms: _514  and  _515
REMARK  208  A    between atoms: _517  and  _519
REMARK  209  A    between atoms: _519  and  _520
REMARK  210  A    between atoms: _519  and  _522
REMARK  211  A    between atoms: _522  and  _523
REMARK  212  A    between atoms: _526  and  _528
REMARK  213  A    between atoms: _528  and  _529
REMARK  214  A    between atoms: _528  and  _531
REMARK  215  A    between atoms: _531  and  _532
REMARK  216  A    between atoms: _532  and  _533
REMARK  217  A    between atoms: _536  and  _538
REMARK  218  A    between atoms: _538  and  _539
REMARK  219  A    between atoms: _542  and  _544
REMARK  220  A    between atoms: _544  and  _545
REMARK  221  A    between atoms: _544  and  _547
REMARK  222  A    between atoms: _547  and  _548
REMARK  223  A    between atoms: _550  and  _552
REMARK  224  A    between atoms: _552  and  _553
REMARK  225  A    between atoms: _555  and  _557
REMARK  226  A    between atoms: _557  and  _558
REMARK  227  A    between atoms: _557  and  _560
REMARK  228  A    between atoms: _560  and  _561
REMARK  229  A    between atoms: _564  and  _566
REMARK  230  A    between atoms: _566  and  _567
REMARK  231  A    between atoms: _569  and  _571
REMARK  232  A    between atoms: _571  and  _572
REMARK  233  A    between atoms: _571  and  _574
REMARK  234  A    between atoms: _574  and  _575
REMARK  235  A    between atoms: _580  and  _582
REMARK  236  A    between atoms: _582  and  _583
REMARK  237  A    between atoms: _582  and  _585
REMARK  238  A    between atoms: _585  and  _586
REMARK  239  A    between atoms: _586  and  _587
REMARK  240  A    between atoms: _594  and  _595
REMARK  241  A    between atoms: _595  and  _611
REMARK  242  A    between atoms: _596  and  _598
REMARK  243  A    between atoms: _598  and  _599
REMARK  244  A    between atoms: _599  and  _600
REMARK  245  A    between atoms: _604  and  _606
REMARK  246  A    between atoms: _606  and  _607
REMARK  247  A    between atoms: _606  and  _614
REMARK  248  A    between atoms: _607  and  _608
REMARK  249  A    between atoms: _608  and  _609
REMARK  250  A    between atoms: _609  and  _610
REMARK  251  A    between atoms: _610  and  _611
REMARK  252  A    between atoms: _616  and  _618
REMARK  253  A    between atoms: _618  and  _619
REMARK  254  A    between atoms: _618  and  _621
REMARK  255  A    between atoms: _621  and  _622
REMARK  256  A    between atoms: _625  and  _627
REMARK  257  A    between atoms: _627  and  _628
REMARK  258  A    between atoms: _630  and  _632
REMARK  259  A    between atoms: _632  and  _633
REMARK  260  A    between atoms: _636  and  _638
REMARK  261  A    between atoms: _638  and  _639
REMARK  262  A    between atoms: _638  and  _641
REMARK  263  A    between atoms: _641  and  _642
REMARK  264  A    between atoms: _647  and  _648
REMARK                            x       y       z     vdW  Elec       q    Type
REMARK                         _______ _______ _______ _____ _____    ______ ____
ROOT
ATOM      1  O   HOH     1      28.776  21.748  25.860  0.00  0.00    +0.000 OA
ENDROOT
TORSDOF 0
REMARK  Name = ../refined-set-2016/2qrq/2qrq_pocket.pdb
REMARK  264 active torsions:
REMARK  status: ('A' for Active; 'I' for Inactive)
REMARK    1  A    between atoms: _1  and  _3
REMARK    2  A    between atoms: _3  and  _4
REMARK    3  A    between atoms: _3  and  _6
REMARK    4  A    between atoms: _6  and  _7
REMARK    5  A    between atoms: _12  and  _13
REMARK    6  A    between atoms: _15  and  _17
REMARK    7  A    between atoms: _17  and  _18
REMARK    8  A    between atoms: _17  and  _20
REMARK    9  A    between atoms: _20  and  _21
REMARK   10  A    between atoms: _24  and  _26
REMARK   11  A    between atoms: _26  and  _27
REMARK   12  A    between atoms: _26  and  _29
REMARK   13  A    between atoms: _29  and  _30
REMARK   14  A    between atoms: _30  and  _31
REMARK   15  A    between atoms: _34  and  _36
REMARK   16  A    between atoms: _36  and  _37
REMARK   17  A    between atoms: _39  and  _41
REMARK   18  A    between atoms: _41  and  _42
REMARK   19  A    between atoms: _41  and  _44
REMARK   20  A    between atoms: _44  and  _45
REMARK   21  A    between atoms: _50  and  _52
REMARK   22  A    between atoms: _52  and  _53
REMARK   23  A    between atoms: _55  and  _57
REMARK   24  A    between atoms: _57  and  _58
REMARK   25  A    between atoms: _60  and  _62
REMARK   26  A    between atoms: _62  and  _63
REMARK   27  A    between atoms: _62  and  _65
REMARK   28  A    between atoms: _65  and  _66
REMARK   29  A    between atoms: _69  and  _71
REMARK   30  A    between atoms: _71  and  _72
REMARK   31  A    between atoms: _74  and  _76
REMARK   32  A    between atoms: _76  and  _77
REMARK   33  A    between atoms: _76  and  _79
REMARK   34  A    between atoms: _79  and  _80
REMARK   35  A    between atoms: _80  and  _81
REMARK   36  A    between atoms: _81  and  _82
REMARK   37  A    between atoms: _91  and  _93
REMARK   38  A    between atoms: _93  and  _94
REMARK   39  A    between atoms: _93  and  _96
REMARK   40  A    between atoms: _96  and  _97
REMARK   41  A    between atoms: _100  and  _102
REMARK   42  A    between atoms: _102  and  _103
REMARK   43  A    between atoms: _106  and  _108
REMARK   44  A    between atoms: _108  and  _109
REMARK   45  A    between atoms: _108  and  _111
REMARK   46  A    between atoms: _111  and  _112
REMARK   47  A    between atoms: _118  and  _120
REMARK   48  A    between atoms: _120  and  _121
REMARK   49  A    between atoms: _120  and  _123
REMARK   50  A    between atoms: _123  and  _124
REMARK   51  A    between atoms: _127  and  _129
REMARK   52  A    between atoms: _129  and  _130
REMARK   53  A    between atoms: _129  and  _132
REMARK   54  A    between atoms: _132  and  _133
REMARK   55  A    between atoms: _138  and  _139
REMARK   56  A    between atoms: _142  and  _143
REMARK   57  A    between atoms: _148  and  _150
REMARK   58  A    between atoms: _150  and  _151
REMARK   59  A    between atoms: _150  and  _153
REMARK   60  A    between atoms: _153  and  _154
REMARK   61  A    between atoms: _159  and  _161
REMARK   62  A    between atoms: _161  and  _162
REMARK   63  A    between atoms: _161  and  _164
REMARK   64  A    between atoms: _164  and  _165
REMARK   65  A    between atoms: _168  and  _170
REMARK   66  A    between atoms: _170  and  _171
REMARK   67  A    between atoms: _170  and  _173
REMARK   68  A    between atoms: _173  and  _174
REMARK   69  A    between atoms: _179  and  _181
REMARK   70  A    between atoms: _181  and  _182
REMARK   71  A    between atoms: _181  and  _184
REMARK   72  A    between atoms: _184  and  _185
REMARK   73  A    between atoms: _191  and  _193
REMARK   74  A    between atoms: _193  and  _194
REMARK   75  A    between atoms: _193  and  _196
REMARK   76  A    between atoms: _196  and  _197
REMARK   77  A    between atoms: _203  and  _205
REMARK   78  A    between atoms: _205  and  _206
REMARK   79  A    between atoms: _205  and  _208
REMARK   80  A    between atoms: _208  and  _209
REMARK   81  A    between atoms: _209  and  _210
REMARK   82  A    between atoms: _213  and  _215
REMARK   83  A    between atoms: _215  and  _216
REMARK   84  A    between atoms: _215  and  _218
REMARK   85  A    between atoms: _218  and  _219
REMARK   86  A    between atoms: _219  and  _220
REMARK   87  A    between atoms: _220  and  _221
REMARK   88  A    between atoms: _230  and  _232
REMARK   89  A    between atoms: _232  and  _233
REMARK   90  A    between atoms: _232  and  _235
REMARK   91  A    between atoms: _235  and  _236
REMARK   92  A    between atoms: _236  and  _237
REMARK   93  A    between atoms: _240  and  _242
REMARK   94  A    between atoms: _242  and  _243
REMARK   95  A    between atoms: _242  and  _245
REMARK   96  A    between atoms: _245  and  _246
REMARK   97  A    between atoms: _251  and  _253
REMARK   98  A    between atoms: _253  and  _254
REMARK   99  A    between atoms: _253  and  _256
REMARK  100  A    between atoms: _256  and  _257
REMARK  101  A    between atoms: _260  and  _262
REMARK  102  A    between atoms: _262  and  _263
REMARK  103  A    between atoms: _262  and  _265
REMARK  104  A    between atoms: _265  and  _266
REMARK  105  A    between atoms: _269  and  _271
REMARK  106  A    between atoms: _271  and  _272
REMARK  107  A    between atoms: _271  and  _274
REMARK  108  A    between atoms: _274  and  _275
REMARK  109  A    between atoms: _280  and  _282
REMARK  110  A    between atoms: _282  and  _283
REMARK  111  A    between atoms: _282  and  _285
REMARK  112  A    between atoms: _285  and  _286
REMARK  113  A    between atoms: _289  and  _291
REMARK  114  A    between atoms: _291  and  _292
REMARK  115  A    between atoms: _291  and  _294
REMARK  116  A    between atoms: _294  and  _295
REMARK  117  A    between atoms: _300  and  _302
REMARK  118  A    between atoms: _302  and  _303
REMARK  119  A    between atoms: _302  and  _305
REMARK  120  A    between atoms: _305  and  _306
REMARK  121  A    between atoms: _311  and  _313
REMARK  122  A    between atoms: _313  and  _314
REMARK  123  A    between atoms: _313  and  _316
REMARK  124  A    between atoms: _316  and  _317
REMARK  125  A    between atoms: _320  and  _322
REMARK  126  A    between atoms: _322  and  _323
REMARK  127  A    between atoms: _322  and  _325
REMARK  128  A    between atoms: _328  and  _330
REMARK  129  A    between atoms: _330  and  _331
REMARK  130  A    between atoms: _330  and  _333
REMARK  131  A    between atoms: _333  and  _334
REMARK  132  A    between atoms: _337  and  _339
REMARK  133  A    between atoms: _339  and  _340
REMARK  134  A    between atoms: _343  and  _345
REMARK  135  A    between atoms: _345  and  _346
REMARK  136  A    between atoms: _345  and  _348
REMARK  137  A    between atoms: _348  and  _349
REMARK  138  A    between atoms: _352  and  _354
REMARK  139  A    between atoms: _354  and  _355
REMARK  140  A    between atoms: _354  and  _357
REMARK  141  A    between atoms: _357  and  _358
REMARK  142  A    between atoms: _358  and  _359
REMARK  143  A    between atoms: _362  and  _364
REMARK  144  A    between atoms: _364  and  _365
REMARK  145  A    between atoms: _364  and  _367
REMARK  146  A    between atoms: _367  and  _368
REMARK  147  A    between atoms: _373  and  _375
REMARK  148  A    between atoms: _375  and  _376
REMARK  149  A    between atoms: _378  and  _380
REMARK  150  A    between atoms: _380  and  _381
REMARK  151  A    between atoms: _380  and  _383
REMARK  152  A    between atoms: _386  and  _388
REMARK  153  A    between atoms: _388  and  _389
REMARK  154  A    between atoms: _392  and  _394
REMARK  155  A    between atoms: _394  and  _395
REMARK  156  A    between atoms: _394  and  _397
REMARK  157  A    between atoms: _397  and  _398
REMARK  158  A    between atoms: _403  and  _405
REMARK  159  A    between atoms: _405  and  _406
REMARK  160  A    between atoms: _405  and  _408
REMARK  161  A    between atoms: _408  and  _409
REMARK  162  A    between atoms: _409  and  _410
REMARK  163  A    between atoms: _410  and  _411
REMARK  164  A    between atoms: _411  and  _412
REMARK  165  A    between atoms: _416  and  _418
REMARK  166  A    between atoms: _418  and  _419
REMARK  167  A    between atoms: _418  and  _421
REMARK  168  A    between atoms: _421  and  _422
REMARK  169  A    between atoms: _425  and  _427
REMARK  170  A    between atoms: _427  and  _428
REMARK  171  A    between atoms: _427  and  _430
REMARK  172  A    between atoms: _430  and  _431
REMARK  173  A    between atoms: _436  and  _438
REMARK  174  A    between atoms: _438  and  _439
REMARK  175  A    between atoms: _441  and  _443
REMARK  176  A    between atoms: _443  and  _444
REMARK  177  A    between atoms: _443  and  _446
REMARK  178  A    between atoms: _446  and  _447
REMARK  179  A    between atoms: _447  and  _448
REMARK  180  A    between atoms: _448  and  _449
REMARK  181  A    between atoms: _449  and  _450
REMARK  182  A    between atoms: _454  and  _456
REMARK  183  A    between atoms: _456  and  _457
REMARK  184  A    between atoms: _456  and  _459
REMARK  185  A    between atoms: _459  and  _460
REMARK  186  A    between atoms: _460  and  _461
REMARK  187  A    between atoms: _461  and  _462
REMARK  188  A    between atoms: _471  and  _473
REMARK  189  A    between atoms: _473  and  _474
REMARK  190  A    between atoms: _473  and  _476
REMARK  191  A    between atoms: _476  and  _477
REMARK  192  A    between atoms: _482  and  _484
REMARK  193  A    between atoms: _484  and  _485
REMARK  194  A    between atoms: _484  and  _487
REMARK  195  A    between atoms: _487  and  _488
REMARK  196  A    between atoms: _493  and  _494
REMARK  197  A    between atoms: _496  and  _498
REMARK  198  A    between atoms: _498  and  _499
REMARK  199  A    between atoms: _498  and  _501
REMARK  200  A    between atoms: _501  and  _502
REMARK  201  A    between atoms: _502  and  _503
REMARK  202  A    between atoms: _503  and  _504
REMARK  203  A    between atoms: _504  and  _505
REMARK  204  A    between atoms: _509  and  _511
REMARK  205  A    between atoms: _511  and  _512
REMARK  206  A    between atoms: _511  and  _514
REMARK  207  A    between atoms: _514  and  _515
REMARK  208  A    between atoms: _517  and  _519
REMARK  209  A    between atoms: _519  and  _520
REMARK  210  A    between atoms: _519  and  _522
REMARK  211  A    between atoms: _522  and  _523
REMARK  212  A    between atoms: _526  and  _528
REMARK  213  A    between atoms: _528  and  _529
REMARK  214  A    between atoms: _528  and  _531
REMARK  215  A    between atoms: _531  and  _532
REMARK  216  A    between atoms: _532  and  _533
REMARK  217  A    between atoms: _536  and  _538
REMARK  218  A    between atoms: _538  and  _539
REMARK  219  A    between atoms: _542  and  _544
REMARK  220  A    between atoms: _544  and  _545
REMARK  221  A    between atoms: _544  and  _547
REMARK  222  A    between atoms: _547  and  _548
REMARK  223  A    between atoms: _550  and  _552
REMARK  224  A    between atoms: _552  and  _553
REMARK  225  A    between atoms: _555  and  _557
REMARK  226  A    between atoms: _557  and  _558
REMARK  227  A    between atoms: _557  and  _560
REMARK  228  A    between atoms: _560  and  _561
REMARK  229  A    between atoms: _564  and  _566
REMARK  230  A    between atoms: _566  and  _567
REMARK  231  A    between atoms: _569  and  _571
REMARK  232  A    between atoms: _571  and  _572
REMARK  233  A    between atoms: _571  and  _574
REMARK  234  A    between atoms: _574  and  _575
REMARK  235  A    between atoms: _580  and  _582
REMARK  236  A    between atoms: _582  and  _583
REMARK  237  A    between atoms: _582  and  _585
REMARK  238  A    between atoms: _585  and  _586
REMARK  239  A    between atoms: _586  and  _587
REMARK  240  A    between atoms: _594  and  _595
REMARK  241  A    between atoms: _595  and  _611
REMARK  242  A    between atoms: _596  and  _598
REMARK  243  A    between atoms: _598  and  _599
REMARK  244  A    between atoms: _599  and  _600
REMARK  245  A    between atoms: _604  and  _606
REMARK  246  A    between atoms: _606  and  _607
REMARK  247  A    between atoms: _606  and  _614
REMARK  248  A    between atoms: _607  and  _608
REMARK  249  A    between atoms: _608  and  _609
REMARK  250  A    between atoms: _609  and  _610
REMARK  251  A    between atoms: _610  and  _611
REMARK  252  A    between atoms: _616  and  _618
REMARK  253  A    between atoms: _618  and  _619
REMARK  254  A    between atoms: _618  and  _621
REMARK  255  A    between atoms: _621  and  _622
REMARK  256  A    between atoms: _625  and  _627
REMARK  257  A    between atoms: _627  and  _628
REMARK  258  A    between atoms: _630  and  _632
REMARK  259  A    between atoms: _632  and  _633
REMARK  260  A    between atoms: _636  and  _638
REMARK  261  A    between atoms: _638  and  _639
REMARK  262  A    between atoms: _638  and  _641
REMARK  263  A    between atoms: _641  and  _642
REMARK  264  A    between atoms: _647  and  _648
REMARK                            x       y       z     vdW  Elec       q    Type
REMARK                         _______ _______ _______ _____ _____    ______ ____
ROOT
ATOM      1  O   HOH     1      28.396  23.594  18.893  0.00  0.00    +0.000 OA
ENDROOT
TORSDOF 0
REMARK  Name = ../refined-set-2016/2qrq/2qrq_pocket.pdb
REMARK  264 active torsions:
REMARK  status: ('A' for Active; 'I' for Inactive)
REMARK    1  A    between atoms: _1  and  _3
REMARK    2  A    between atoms: _3  and  _4
REMARK    3  A    between atoms: _3  and  _6
REMARK    4  A    between atoms: _6  and  _7
REMARK    5  A    between atoms: _12  and  _13
REMARK    6  A    between atoms: _15  and  _17
REMARK    7  A    between atoms: _17  and  _18
REMARK    8  A    between atoms: _17  and  _20
REMARK    9  A    between atoms: _20  and  _21
REMARK   10  A    between atoms: _24  and  _26
REMARK   11  A    between atoms: _26  and  _27
REMARK   12  A    between atoms: _26  and  _29
REMARK   13  A    between atoms: _29  and  _30
REMARK   14  A    between atoms: _30  and  _31
REMARK   15  A    between atoms: _34  and  _36
REMARK   16  A    between atoms: _36  and  _37
REMARK   17  A    between atoms: _39  and  _41
REMARK   18  A    between atoms: _41  and  _42
REMARK   19  A    between atoms: _41  and  _44
REMARK   20  A    between atoms: _44  and  _45
REMARK   21  A    between atoms: _50  and  _52
REMARK   22  A    between atoms: _52  and  _53
REMARK   23  A    between atoms: _55  and  _57
REMARK   24  A    between atoms: _57  and  _58
REMARK   25  A    between atoms: _60  and  _62
REMARK   26  A    between atoms: _62  and  _63
REMARK   27  A    between atoms: _62  and  _65
REMARK   28  A    between atoms: _65  and  _66
REMARK   29  A    between atoms: _69  and  _71
REMARK   30  A    between atoms: _71  and  _72
REMARK   31  A    between atoms: _74  and  _76
REMARK   32  A    between atoms: _76  and  _77
REMARK   33  A    between atoms: _76  and  _79
REMARK   34  A    between atoms: _79  and  _80
REMARK   35  A    between atoms: _80  and  _81
REMARK   36  A    between atoms: _81  and  _82
REMARK   37  A    between atoms: _91  and  _93
REMARK   38  A    between atoms: _93  and  _94
REMARK   39  A    between atoms: _93  and  _96
REMARK   40  A    between atoms: _96  and  _97
REMARK   41  A    between atoms: _100  and  _102
REMARK   42  A    between atoms: _102  and  _103
REMARK   43  A    between atoms: _106  and  _108
REMARK   44  A    between atoms: _108  and  _109
REMARK   45  A    between atoms: _108  and  _111
REMARK   46  A    between atoms: _111  and  _112
REMARK   47  A    between atoms: _118  and  _120
REMARK   48  A    between atoms: _120  and  _121
REMARK   49  A    between atoms: _120  and  _123
REMARK   50  A    between atoms: _123  and  _124
REMARK   51  A    between atoms: _127  and  _129
REMARK   52  A    between atoms: _129  and  _130
REMARK   53  A    between atoms: _129  and  _132
REMARK   54  A    between atoms: _132  and  _133
REMARK   55  A    between atoms: _138  and  _139
REMARK   56  A    between atoms: _142  and  _143
REMARK   57  A    between atoms: _148  and  _150
REMARK   58  A    between atoms: _150  and  _151
REMARK   59  A    between atoms: _150  and  _153
REMARK   60  A    between atoms: _153  and  _154
REMARK   61  A    between atoms: _159  and  _161
REMARK   62  A    between atoms: _161  and  _162
REMARK   63  A    between atoms: _161  and  _164
REMARK   64  A    between atoms: _164  and  _165
REMARK   65  A    between atoms: _168  and  _170
REMARK   66  A    between atoms: _170  and  _171
REMARK   67  A    between atoms: _170  and  _173
REMARK   68  A    between atoms: _173  and  _174
REMARK   69  A    between atoms: _179  and  _181
REMARK   70  A    between atoms: _181  and  _182
REMARK   71  A    between atoms: _181  and  _184
REMARK   72  A    between atoms: _184  and  _185
REMARK   73  A    between atoms: _191  and  _193
REMARK   74  A    between atoms: _193  and  _194
REMARK   75  A    between atoms: _193  and  _196
REMARK   76  A    between atoms: _196  and  _197
REMARK   77  A    between atoms: _203  and  _205
REMARK   78  A    between atoms: _205  and  _206
REMARK   79  A    between atoms: _205  and  _208
REMARK   80  A    between atoms: _208  and  _209
REMARK   81  A    between atoms: _209  and  _210
REMARK   82  A    between atoms: _213  and  _215
REMARK   83  A    between atoms: _215  and  _216
REMARK   84  A    between atoms: _215  and  _218
REMARK   85  A    between atoms: _218  and  _219
REMARK   86  A    between atoms: _219  and  _220
REMARK   87  A    between atoms: _220  and  _221
REMARK   88  A    between atoms: _230  and  _232
REMARK   89  A    between atoms: _232  and  _233
REMARK   90  A    between atoms: _232  and  _235
REMARK   91  A    between atoms: _235  and  _236
REMARK   92  A    between atoms: _236  and  _237
REMARK   93  A    between atoms: _240  and  _242
REMARK   94  A    between atoms: _242  and  _243
REMARK   95  A    between atoms: _242  and  _245
REMARK   96  A    between atoms: _245  and  _246
REMARK   97  A    between atoms: _251  and  _253
REMARK   98  A    between atoms: _253  and  _254
REMARK   99  A    between atoms: _253  and  _256
REMARK  100  A    between atoms: _256  and  _257
REMARK  101  A    between atoms: _260  and  _262
REMARK  102  A    between atoms: _262  and  _263
REMARK  103  A    between atoms: _262  and  _265
REMARK  104  A    between atoms: _265  and  _266
REMARK  105  A    between atoms: _269  and  _271
REMARK  106  A    between atoms: _271  and  _272
REMARK  107  A    between atoms: _271  and  _274
REMARK  108  A    between atoms: _274  and  _275
REMARK  109  A    between atoms: _280  and  _282
REMARK  110  A    between atoms: _282  and  _283
REMARK  111  A    between atoms: _282  and  _285
REMARK  112  A    between atoms: _285  and  _286
REMARK  113  A    between atoms: _289  and  _291
REMARK  114  A    between atoms: _291  and  _292
REMARK  115  A    between atoms: _291  and  _294
REMARK  116  A    between atoms: _294  and  _295
REMARK  117  A    between atoms: _300  and  _302
REMARK  118  A    between atoms: _302  and  _303
REMARK  119  A    between atoms: _302  and  _305
REMARK  120  A    between atoms: _305  and  _306
REMARK  121  A    between atoms: _311  and  _313
REMARK  122  A    between atoms: _313  and  _314
REMARK  123  A    between atoms: _313  and  _316
REMARK  124  A    between atoms: _316  and  _317
REMARK  125  A    between atoms: _320  and  _322
REMARK  126  A    between atoms: _322  and  _323
REMARK  127  A    between atoms: _322  and  _325
REMARK  128  A    between atoms: _328  and  _330
REMARK  129  A    between atoms: _330  and  _331
REMARK  130  A    between atoms: _330  and  _333
REMARK  131  A    between atoms: _333  and  _334
REMARK  132  A    between atoms: _337  and  _339
REMARK  133  A    between atoms: _339  and  _340
REMARK  134  A    between atoms: _343  and  _345
REMARK  135  A    between atoms: _345  and  _346
REMARK  136  A    between atoms: _345  and  _348
REMARK  137  A    between atoms: _348  and  _349
REMARK  138  A    between atoms: _352  and  _354
REMARK  139  A    between atoms: _354  and  _355
REMARK  140  A    between atoms: _354  and  _357
REMARK  141  A    between atoms: _357  and  _358
REMARK  142  A    between atoms: _358  and  _359
REMARK  143  A    between atoms: _362  and  _364
REMARK  144  A    between atoms: _364  and  _365
REMARK  145  A    between atoms: _364  and  _367
REMARK  146  A    between atoms: _367  and  _368
REMARK  147  A    between atoms: _373  and  _375
REMARK  148  A    between atoms: _375  and  _376
REMARK  149  A    between atoms: _378  and  _380
REMARK  150  A    between atoms: _380  and  _381
REMARK  151  A    between atoms: _380  and  _383
REMARK  152  A    between atoms: _386  and  _388
REMARK  153  A    between atoms: _388  and  _389
REMARK  154  A    between atoms: _392  and  _394
REMARK  155  A    between atoms: _394  and  _395
REMARK  156  A    between atoms: _394  and  _397
REMARK  157  A    between atoms: _397  and  _398
REMARK  158  A    between atoms: _403  and  _405
REMARK  159  A    between atoms: _405  and  _406
REMARK  160  A    between atoms: _405  and  _408
REMARK  161  A    between atoms: _408  and  _409
REMARK  162  A    between atoms: _409  and  _410
REMARK  163  A    between atoms: _410  and  _411
REMARK  164  A    between atoms: _411  and  _412
REMARK  165  A    between atoms: _416  and  _418
REMARK  166  A    between atoms: _418  and  _419
REMARK  167  A    between atoms: _418  and  _421
REMARK  168  A    between atoms: _421  and  _422
REMARK  169  A    between atoms: _425  and  _427
REMARK  170  A    between atoms: _427  and  _428
REMARK  171  A    between atoms: _427  and  _430
REMARK  172  A    between atoms: _430  and  _431
REMARK  173  A    between atoms: _436  and  _438
REMARK  174  A    between atoms: _438  and  _439
REMARK  175  A    between atoms: _441  and  _443
REMARK  176  A    between atoms: _443  and  _444
REMARK  177  A    between atoms: _443  and  _446
REMARK  178  A    between atoms: _446  and  _447
REMARK  179  A    between atoms: _447  and  _448
REMARK  180  A    between atoms: _448  and  _449
REMARK  181  A    between atoms: _449  and  _450
REMARK  182  A    between atoms: _454  and  _456
REMARK  183  A    between atoms: _456  and  _457
REMARK  184  A    between atoms: _456  and  _459
REMARK  185  A    between atoms: _459  and  _460
REMARK  186  A    between atoms: _460  and  _461
REMARK  187  A    between atoms: _461  and  _462
REMARK  188  A    between atoms: _471  and  _473
REMARK  189  A    between atoms: _473  and  _474
REMARK  190  A    between atoms: _473  and  _476
REMARK  191  A    between atoms: _476  and  _477
REMARK  192  A    between atoms: _482  and  _484
REMARK  193  A    between atoms: _484  and  _485
REMARK  194  A    between atoms: _484  and  _487
REMARK  195  A    between atoms: _487  and  _488
REMARK  196  A    between atoms: _493  and  _494
REMARK  197  A    between atoms: _496  and  _498
REMARK  198  A    between atoms: _498  and  _499
REMARK  199  A    between atoms: _498  and  _501
REMARK  200  A    between atoms: _501  and  _502
REMARK  201  A    between atoms: _502  and  _503
REMARK  202  A    between atoms: _503  and  _504
REMARK  203  A    between atoms: _504  and  _505
REMARK  204  A    between atoms: _509  and  _511
REMARK  205  A    between atoms: _511  and  _512
REMARK  206  A    between atoms: _511  and  _514
REMARK  207  A    between atoms: _514  and  _515
REMARK  208  A    between atoms: _517  and  _519
REMARK  209  A    between atoms: _519  and  _520
REMARK  210  A    between atoms: _519  and  _522
REMARK  211  A    between atoms: _522  and  _523
REMARK  212  A    between atoms: _526  and  _528
REMARK  213  A    between atoms: _528  and  _529
REMARK  214  A    between atoms: _528  and  _531
REMARK  215  A    between atoms: _531  and  _532
REMARK  216  A    between atoms: _532  and  _533
REMARK  217  A    between atoms: _536  and  _538
REMARK  218  A    between atoms: _538  and  _539
REMARK  219  A    between atoms: _542  and  _544
REMARK  220  A    between atoms: _544  and  _545
REMARK  221  A    between atoms: _544  and  _547
REMARK  222  A    between atoms: _547  and  _548
REMARK  223  A    between atoms: _550  and  _552
REMARK  224  A    between atoms: _552  and  _553
REMARK  225  A    between atoms: _555  and  _557
REMARK  226  A    between atoms: _557  and  _558
REMARK  227  A    between atoms: _557  and  _560
REMARK  228  A    between atoms: _560  and  _561
REMARK  229  A    between atoms: _564  and  _566
REMARK  230  A    between atoms: _566  and  _567
REMARK  231  A    between atoms: _569  and  _571
REMARK  232  A    between atoms: _571  and  _572
REMARK  233  A    between atoms: _571  and  _574
REMARK  234  A    between atoms: _574  and  _575
REMARK  235  A    between atoms: _580  and  _582
REMARK  236  A    between atoms: _582  and  _583
REMARK  237  A    between atoms: _582  and  _585
REMARK  238  A    between atoms: _585  and  _586
REMARK  239  A    between atoms: _586  and  _587
REMARK  240  A    between atoms: _594  and  _595
REMARK  241  A    between atoms: _595  and  _611
REMARK  242  A    between atoms: _596  and  _598
REMARK  243  A    between atoms: _598  and  _599
REMARK  244  A    between atoms: _599  and  _600
REMARK  245  A    between atoms: _604  and  _606
REMARK  246  A    between atoms: _606  and  _607
REMARK  247  A    between atoms: _606  and  _614
REMARK  248  A    between atoms: _607  and  _608
REMARK  249  A    between atoms: _608  and  _609
REMARK  250  A    between atoms: _609  and  _610
REMARK  251  A    between atoms: _610  and  _611
REMARK  252  A    between atoms: _616  and  _618
REMARK  253  A    between atoms: _618  and  _619
REMARK  254  A    between atoms: _618  and  _621
REMARK  255  A    between atoms: _621  and  _622
REMARK  256  A    between atoms: _625  and  _627
REMARK  257  A    between atoms: _627  and  _628
REMARK  258  A    between atoms: _630  and  _632
REMARK  259  A    between atoms: _632  and  _633
REMARK  260  A    between atoms: _636  and  _638
REMARK  261  A    between atoms: _638  and  _639
REMARK  262  A    between atoms: _638  and  _641
REMARK  263  A    between atoms: _641  and  _642
REMARK  264  A    between atoms: _647  and  _648
REMARK                            x       y       z     vdW  Elec       q    Type
REMARK                         _______ _______ _______ _____ _____    ______ ____
ROOT
ATOM      1  O   HOH     1      28.961  26.065  17.922  0.00  0.00    +0.000 OA
ENDROOT
TORSDOF 0
REMARK  Name = ../refined-set-2016/2qrq/2qrq_pocket.pdb
REMARK  264 active torsions:
REMARK  status: ('A' for Active; 'I' for Inactive)
REMARK    1  A    between atoms: _1  and  _3
REMARK    2  A    between atoms: _3  and  _4
REMARK    3  A    between atoms: _3  and  _6
REMARK    4  A    between atoms: _6  and  _7
REMARK    5  A    between atoms: _12  and  _13
REMARK    6  A    between atoms: _15  and  _17
REMARK    7  A    between atoms: _17  and  _18
REMARK    8  A    between atoms: _17  and  _20
REMARK    9  A    between atoms: _20  and  _21
REMARK   10  A    between atoms: _24  and  _26
REMARK   11  A    between atoms: _26  and  _27
REMARK   12  A    between atoms: _26  and  _29
REMARK   13  A    between atoms: _29  and  _30
REMARK   14  A    between atoms: _30  and  _31
REMARK   15  A    between atoms: _34  and  _36
REMARK   16  A    between atoms: _36  and  _37
REMARK   17  A    between atoms: _39  and  _41
REMARK   18  A    between atoms: _41  and  _42
REMARK   19  A    between atoms: _41  and  _44
REMARK   20  A    between atoms: _44  and  _45
REMARK   21  A    between atoms: _50  and  _52
REMARK   22  A    between atoms: _52  and  _53
REMARK   23  A    between atoms: _55  and  _57
REMARK   24  A    between atoms: _57  and  _58
REMARK   25  A    between atoms: _60  and  _62
REMARK   26  A    between atoms: _62  and  _63
REMARK   27  A    between atoms: _62  and  _65
REMARK   28  A    between atoms: _65  and  _66
REMARK   29  A    between atoms: _69  and  _71
REMARK   30  A    between atoms: _71  and  _72
REMARK   31  A    between atoms: _74  and  _76
REMARK   32  A    between atoms: _76  and  _77
REMARK   33  A    between atoms: _76  and  _79
REMARK   34  A    between atoms: _79  and  _80
REMARK   35  A    between atoms: _80  and  _81
REMARK   36  A    between atoms: _81  and  _82
REMARK   37  A    between atoms: _91  and  _93
REMARK   38  A    between atoms: _93  and  _94
REMARK   39  A    between atoms: _93  and  _96
REMARK   40  A    between atoms: _96  and  _97
REMARK   41  A    between atoms: _100  and  _102
REMARK   42  A    between atoms: _102  and  _103
REMARK   43  A    between atoms: _106  and  _108
REMARK   44  A    between atoms: _108  and  _109
REMARK   45  A    between atoms: _108  and  _111
REMARK   46  A    between atoms: _111  and  _112
REMARK   47  A    between atoms: _118  and  _120
REMARK   48  A    between atoms: _120  and  _121
REMARK   49  A    between atoms: _120  and  _123
REMARK   50  A    between atoms: _123  and  _124
REMARK   51  A    between atoms: _127  and  _129
REMARK   52  A    between atoms: _129  and  _130
REMARK   53  A    between atoms: _129  and  _132
REMARK   54  A    between atoms: _132  and  _133
REMARK   55  A    between atoms: _138  and  _139
REMARK   56  A    between atoms: _142  and  _143
REMARK   57  A    between atoms: _148  and  _150
REMARK   58  A    between atoms: _150  and  _151
REMARK   59  A    between atoms: _150  and  _153
REMARK   60  A    between atoms: _153  and  _154
REMARK   61  A    between atoms: _159  and  _161
REMARK   62  A    between atoms: _161  and  _162
REMARK   63  A    between atoms: _161  and  _164
REMARK   64  A    between atoms: _164  and  _165
REMARK   65  A    between atoms: _168  and  _170
REMARK   66  A    between atoms: _170  and  _171
REMARK   67  A    between atoms: _170  and  _173
REMARK   68  A    between atoms: _173  and  _174
REMARK   69  A    between atoms: _179  and  _181
REMARK   70  A    between atoms: _181  and  _182
REMARK   71  A    between atoms: _181  and  _184
REMARK   72  A    between atoms: _184  and  _185
REMARK   73  A    between atoms: _191  and  _193
REMARK   74  A    between atoms: _193  and  _194
REMARK   75  A    between atoms: _193  and  _196
REMARK   76  A    between atoms: _196  and  _197
REMARK   77  A    between atoms: _203  and  _205
REMARK   78  A    between atoms: _205  and  _206
REMARK   79  A    between atoms: _205  and  _208
REMARK   80  A    between atoms: _208  and  _209
REMARK   81  A    between atoms: _209  and  _210
REMARK   82  A    between atoms: _213  and  _215
REMARK   83  A    between atoms: _215  and  _216
REMARK   84  A    between atoms: _215  and  _218
REMARK   85  A    between atoms: _218  and  _219
REMARK   86  A    between atoms: _219  and  _220
REMARK   87  A    between atoms: _220  and  _221
REMARK   88  A    between atoms: _230  and  _232
REMARK   89  A    between atoms: _232  and  _233
REMARK   90  A    between atoms: _232  and  _235
REMARK   91  A    between atoms: _235  and  _236
REMARK   92  A    between atoms: _236  and  _237
REMARK   93  A    between atoms: _240  and  _242
REMARK   94  A    between atoms: _242  and  _243
REMARK   95  A    between atoms: _242  and  _245
REMARK   96  A    between atoms: _245  and  _246
REMARK   97  A    between atoms: _251  and  _253
REMARK   98  A    between atoms: _253  and  _254
REMARK   99  A    between atoms: _253  and  _256
REMARK  100  A    between atoms: _256  and  _257
REMARK  101  A    between atoms: _260  and  _262
REMARK  102  A    between atoms: _262  and  _263
REMARK  103  A    between atoms: _262  and  _265
REMARK  104  A    between atoms: _265  and  _266
REMARK  105  A    between atoms: _269  and  _271
REMARK  106  A    between atoms: _271  and  _272
REMARK  107  A    between atoms: _271  and  _274
REMARK  108  A    between atoms: _274  and  _275
REMARK  109  A    between atoms: _280  and  _282
REMARK  110  A    between atoms: _282  and  _283
REMARK  111  A    between atoms: _282  and  _285
REMARK  112  A    between atoms: _285  and  _286
REMARK  113  A    between atoms: _289  and  _291
REMARK  114  A    between atoms: _291  and  _292
REMARK  115  A    between atoms: _291  and  _294
REMARK  116  A    between atoms: _294  and  _295
REMARK  117  A    between atoms: _300  and  _302
REMARK  118  A    between atoms: _302  and  _303
REMARK  119  A    between atoms: _302  and  _305
REMARK  120  A    between atoms: _305  and  _306
REMARK  121  A    between atoms: _311  and  _313
REMARK  122  A    between atoms: _313  and  _314
REMARK  123  A    between atoms: _313  and  _316
REMARK  124  A    between atoms: _316  and  _317
REMARK  125  A    between atoms: _320  and  _322
REMARK  126  A    between atoms: _322  and  _323
REMARK  127  A    between atoms: _322  and  _325
REMARK  128  A    between atoms: _328  and  _330
REMARK  129  A    between atoms: _330  and  _331
REMARK  130  A    between atoms: _330  and  _333
REMARK  131  A    between atoms: _333  and  _334
REMARK  132  A    between atoms: _337  and  _339
REMARK  133  A    between atoms: _339  and  _340
REMARK  134  A    between atoms: _343  and  _345
REMARK  135  A    between atoms: _345  and  _346
REMARK  136  A    between atoms: _345  and  _348
REMARK  137  A    between atoms: _348  and  _349
REMARK  138  A    between atoms: _352  and  _354
REMARK  139  A    between atoms: _354  and  _355
REMARK  140  A    between atoms: _354  and  _357
REMARK  141  A    between atoms: _357  and  _358
REMARK  142  A    between atoms: _358  and  _359
REMARK  143  A    between atoms: _362  and  _364
REMARK  144  A    between atoms: _364  and  _365
REMARK  145  A    between atoms: _364  and  _367
REMARK  146  A    between atoms: _367  and  _368
REMARK  147  A    between atoms: _373  and  _375
REMARK  148  A    between atoms: _375  and  _376
REMARK  149  A    between atoms: _378  and  _380
REMARK  150  A    between atoms: _380  and  _381
REMARK  151  A    between atoms: _380  and  _383
REMARK  152  A    between atoms: _386  and  _388
REMARK  153  A    between atoms: _388  and  _389
REMARK  154  A    between atoms: _392  and  _394
REMARK  155  A    between atoms: _394  and  _395
REMARK  156  A    between atoms: _394  and  _397
REMARK  157  A    between atoms: _397  and  _398
REMARK  158  A    between atoms: _403  and  _405
REMARK  159  A    between atoms: _405  and  _406
REMARK  160  A    between atoms: _405  and  _408
REMARK  161  A    between atoms: _408  and  _409
REMARK  162  A    between atoms: _409  and  _410
REMARK  163  A    between atoms: _410  and  _411
REMARK  164  A    between atoms: _411  and  _412
REMARK  165  A    between atoms: _416  and  _418
REMARK  166  A    between atoms: _418  and  _419
REMARK  167  A    between atoms: _418  and  _421
REMARK  168  A    between atoms: _421  and  _422
REMARK  169  A    between atoms: _425  and  _427
REMARK  170  A    between atoms: _427  and  _428
REMARK  171  A    between atoms: _427  and  _430
REMARK  172  A    between atoms: _430  and  _431
REMARK  173  A    between atoms: _436  and  _438
REMARK  174  A    between atoms: _438  and  _439
REMARK  175  A    between atoms: _441  and  _443
REMARK  176  A    between atoms: _443  and  _444
REMARK  177  A    between atoms: _443  and  _446
REMARK  178  A    between atoms: _446  and  _447
REMARK  179  A    between atoms: _447  and  _448
REMARK  180  A    between atoms: _448  and  _449
REMARK  181  A    between atoms: _449  and  _450
REMARK  182  A    between atoms: _454  and  _456
REMARK  183  A    between atoms: _456  and  _457
REMARK  184  A    between atoms: _456  and  _459
REMARK  185  A    between atoms: _459  and  _460
REMARK  186  A    between atoms: _460  and  _461
REMARK  187  A    between atoms: _461  and  _462
REMARK  188  A    between atoms: _471  and  _473
REMARK  189  A    between atoms: _473  and  _474
REMARK  190  A    between atoms: _473  and  _476
REMARK  191  A    between atoms: _476  and  _477
REMARK  192  A    between atoms: _482  and  _484
REMARK  193  A    between atoms: _484  and  _485
REMARK  194  A    between atoms: _484  and  _487
REMARK  195  A    between atoms: _487  and  _488
REMARK  196  A    between atoms: _493  and  _494
REMARK  197  A    between atoms: _496  and  _498
REMARK  198  A    between atoms: _498  and  _499
REMARK  199  A    between atoms: _498  and  _501
REMARK  200  A    between atoms: _501  and  _502
REMARK  201  A    between atoms: _502  and  _503
REMARK  202  A    between atoms: _503  and  _504
REMARK  203  A    between atoms: _504  and  _505
REMARK  204  A    between atoms: _509  and  _511
REMARK  205  A    between atoms: _511  and  _512
REMARK  206  A    between atoms: _511  and  _514
REMARK  207  A    between atoms: _514  and  _515
REMARK  208  A    between atoms: _517  and  _519
REMARK  209  A    between atoms: _519  and  _520
REMARK  210  A    between atoms: _519  and  _522
REMARK  211  A    between atoms: _522  and  _523
REMARK  212  A    between atoms: _526  and  _528
REMARK  213  A    between atoms: _528  and  _529
REMARK  214  A    between atoms: _528  and  _531
REMARK  215  A    between atoms: _531  and  _532
REMARK  216  A    between atoms: _532  and  _533
REMARK  217  A    between atoms: _536  and  _538
REMARK  218  A    between atoms: _538  and  _539
REMARK  219  A    between atoms: _542  and  _544
REMARK  220  A    between atoms: _544  and  _545
REMARK  221  A    between atoms: _544  and  _547
REMARK  222  A    between atoms: _547  and  _548
REMARK  223  A    between atoms: _550  and  _552
REMARK  224  A    between atoms: _552  and  _553
REMARK  225  A    between atoms: _555  and  _557
REMARK  226  A    between atoms: _557  and  _558
REMARK  227  A    between atoms: _557  and  _560
REMARK  228  A    between atoms: _560  and  _561
REMARK  229  A    between atoms: _564  and  _566
REMARK  230  A    between atoms: _566  and  _567
REMARK  231  A    between atoms: _569  and  _571
REMARK  232  A    between atoms: _571  and  _572
REMARK  233  A    between atoms: _571  and  _574
REMARK  234  A    between atoms: _574  and  _575
REMARK  235  A    between atoms: _580  and  _582
REMARK  236  A    between atoms: _582  and  _583
REMARK  237  A    between atoms: _582  and  _585
REMARK  238  A    between atoms: _585  and  _586
REMARK  239  A    between atoms: _586  and  _587
REMARK  240  A    between atoms: _594  and  _595
REMARK  241  A    between atoms: _595  and  _611
REMARK  242  A    between atoms: _596  and  _598
REMARK  243  A    between atoms: _598  and  _599
REMARK  244  A    between atoms: _599  and  _600
REMARK  245  A    between atoms: _604  and  _606
REMARK  246  A    between atoms: _606  and  _607
REMARK  247  A    between atoms: _606  and  _614
REMARK  248  A    between atoms: _607  and  _608
REMARK  249  A    between atoms: _608  and  _609
REMARK  250  A    between atoms: _609  and  _610
REMARK  251  A    between atoms: _610  and  _611
REMARK  252  A    between atoms: _616  and  _618
REMARK  253  A    between atoms: _618  and  _619
REMARK  254  A    between atoms: _618  and  _621
REMARK  255  A    between atoms: _621  and  _622
REMARK  256  A    between atoms: _625  and  _627
REMARK  257  A    between atoms: _627  and  _628
REMARK  258  A    between atoms: _630  and  _632
REMARK  259  A    between atoms: _632  and  _633
REMARK  260  A    between atoms: _636  and  _638
REMARK  261  A    between atoms: _638  and  _639
REMARK  262  A    between atoms: _638  and  _641
REMARK  263  A    between atoms: _641  and  _642
REMARK  264  A    between atoms: _647  and  _648
REMARK                            x       y       z     vdW  Elec       q    Type
REMARK                         _______ _______ _______ _____ _____    ______ ____
ROOT
ATOM      1  O   HOH     1      28.724  27.437  20.332  0.00  0.00    +0.000 OA
ENDROOT
TORSDOF 0
REMARK  Name = ../refined-set-2016/2qrq/2qrq_pocket.pdb
REMARK  264 active torsions:
REMARK  status: ('A' for Active; 'I' for Inactive)
REMARK    1  A    between atoms: _1  and  _3
REMARK    2  A    between atoms: _3  and  _4
REMARK    3  A    between atoms: _3  and  _6
REMARK    4  A    between atoms: _6  and  _7
REMARK    5  A    between atoms: _12  and  _13
REMARK    6  A    between atoms: _15  and  _17
REMARK    7  A    between atoms: _17  and  _18
REMARK    8  A    between atoms: _17  and  _20
REMARK    9  A    between atoms: _20  and  _21
REMARK   10  A    between atoms: _24  and  _26
REMARK   11  A    between atoms: _26  and  _27
REMARK   12  A    between atoms: _26  and  _29
REMARK   13  A    between atoms: _29  and  _30
REMARK   14  A    between atoms: _30  and  _31
REMARK   15  A    between atoms: _34  and  _36
REMARK   16  A    between atoms: _36  and  _37
REMARK   17  A    between atoms: _39  and  _41
REMARK   18  A    between atoms: _41  and  _42
REMARK   19  A    between atoms: _41  and  _44
REMARK   20  A    between atoms: _44  and  _45
REMARK   21  A    between atoms: _50  and  _52
REMARK   22  A    between atoms: _52  and  _53
REMARK   23  A    between atoms: _55  and  _57
REMARK   24  A    between atoms: _57  and  _58
REMARK   25  A    between atoms: _60  and  _62
REMARK   26  A    between atoms: _62  and  _63
REMARK   27  A    between atoms: _62  and  _65
REMARK   28  A    between atoms: _65  and  _66
REMARK   29  A    between atoms: _69  and  _71
REMARK   30  A    between atoms: _71  and  _72
REMARK   31  A    between atoms: _74  and  _76
REMARK   32  A    between atoms: _76  and  _77
REMARK   33  A    between atoms: _76  and  _79
REMARK   34  A    between atoms: _79  and  _80
REMARK   35  A    between atoms: _80  and  _81
REMARK   36  A    between atoms: _81  and  _82
REMARK   37  A    between atoms: _91  and  _93
REMARK   38  A    between atoms: _93  and  _94
REMARK   39  A    between atoms: _93  and  _96
REMARK   40  A    between atoms: _96  and  _97
REMARK   41  A    between atoms: _100  and  _102
REMARK   42  A    between atoms: _102  and  _103
REMARK   43  A    between atoms: _106  and  _108
REMARK   44  A    between atoms: _108  and  _109
REMARK   45  A    between atoms: _108  and  _111
REMARK   46  A    between atoms: _111  and  _112
REMARK   47  A    between atoms: _118  and  _120
REMARK   48  A    between atoms: _120  and  _121
REMARK   49  A    between atoms: _120  and  _123
REMARK   50  A    between atoms: _123  and  _124
REMARK   51  A    between atoms: _127  and  _129
REMARK   52  A    between atoms: _129  and  _130
REMARK   53  A    between atoms: _129  and  _132
REMARK   54  A    between atoms: _132  and  _133
REMARK   55  A    between atoms: _138  and  _139
REMARK   56  A    between atoms: _142  and  _143
REMARK   57  A    between atoms: _148  and  _150
REMARK   58  A    between atoms: _150  and  _151
REMARK   59  A    between atoms: _150  and  _153
REMARK   60  A    between atoms: _153  and  _154
REMARK   61  A    between atoms: _159  and  _161
REMARK   62  A    between atoms: _161  and  _162
REMARK   63  A    between atoms: _161  and  _164
REMARK   64  A    between atoms: _164  and  _165
REMARK   65  A    between atoms: _168  and  _170
REMARK   66  A    between atoms: _170  and  _171
REMARK   67  A    between atoms: _170  and  _173
REMARK   68  A    between atoms: _173  and  _174
REMARK   69  A    between atoms: _179  and  _181
REMARK   70  A    between atoms: _181  and  _182
REMARK   71  A    between atoms: _181  and  _184
REMARK   72  A    between atoms: _184  and  _185
REMARK   73  A    between atoms: _191  and  _193
REMARK   74  A    between atoms: _193  and  _194
REMARK   75  A    between atoms: _193  and  _196
REMARK   76  A    between atoms: _196  and  _197
REMARK   77  A    between atoms: _203  and  _205
REMARK   78  A    between atoms: _205  and  _206
REMARK   79  A    between atoms: _205  and  _208
REMARK   80  A    between atoms: _208  and  _209
REMARK   81  A    between atoms: _209  and  _210
REMARK   82  A    between atoms: _213  and  _215
REMARK   83  A    between atoms: _215  and  _216
REMARK   84  A    between atoms: _215  and  _218
REMARK   85  A    between atoms: _218  and  _219
REMARK   86  A    between atoms: _219  and  _220
REMARK   87  A    between atoms: _220  and  _221
REMARK   88  A    between atoms: _230  and  _232
REMARK   89  A    between atoms: _232  and  _233
REMARK   90  A    between atoms: _232  and  _235
REMARK   91  A    between atoms: _235  and  _236
REMARK   92  A    between atoms: _236  and  _237
REMARK   93  A    between atoms: _240  and  _242
REMARK   94  A    between atoms: _242  and  _243
REMARK   95  A    between atoms: _242  and  _245
REMARK   96  A    between atoms: _245  and  _246
REMARK   97  A    between atoms: _251  and  _253
REMARK   98  A    between atoms: _253  and  _254
REMARK   99  A    between atoms: _253  and  _256
REMARK  100  A    between atoms: _256  and  _257
REMARK  101  A    between atoms: _260  and  _262
REMARK  102  A    between atoms: _262  and  _263
REMARK  103  A    between atoms: _262  and  _265
REMARK  104  A    between atoms: _265  and  _266
REMARK  105  A    between atoms: _269  and  _271
REMARK  106  A    between atoms: _271  and  _272
REMARK  107  A    between atoms: _271  and  _274
REMARK  108  A    between atoms: _274  and  _275
REMARK  109  A    between atoms: _280  and  _282
REMARK  110  A    between atoms: _282  and  _283
REMARK  111  A    between atoms: _282  and  _285
REMARK  112  A    between atoms: _285  and  _286
REMARK  113  A    between atoms: _289  and  _291
REMARK  114  A    between atoms: _291  and  _292
REMARK  115  A    between atoms: _291  and  _294
REMARK  116  A    between atoms: _294  and  _295
REMARK  117  A    between atoms: _300  and  _302
REMARK  118  A    between atoms: _302  and  _303
REMARK  119  A    between atoms: _302  and  _305
REMARK  120  A    between atoms: _305  and  _306
REMARK  121  A    between atoms: _311  and  _313
REMARK  122  A    between atoms: _313  and  _314
REMARK  123  A    between atoms: _313  and  _316
REMARK  124  A    between atoms: _316  and  _317
REMARK  125  A    between atoms: _320  and  _322
REMARK  126  A    between atoms: _322  and  _323
REMARK  127  A    between atoms: _322  and  _325
REMARK  128  A    between atoms: _328  and  _330
REMARK  129  A    between atoms: _330  and  _331
REMARK  130  A    between atoms: _330  and  _333
REMARK  131  A    between atoms: _333  and  _334
REMARK  132  A    between atoms: _337  and  _339
REMARK  133  A    between atoms: _339  and  _340
REMARK  134  A    between atoms: _343  and  _345
REMARK  135  A    between atoms: _345  and  _346
REMARK  136  A    between atoms: _345  and  _348
REMARK  137  A    between atoms: _348  and  _349
REMARK  138  A    between atoms: _352  and  _354
REMARK  139  A    between atoms: _354  and  _355
REMARK  140  A    between atoms: _354  and  _357
REMARK  141  A    between atoms: _357  and  _358
REMARK  142  A    between atoms: _358  and  _359
REMARK  143  A    between atoms: _362  and  _364
REMARK  144  A    between atoms: _364  and  _365
REMARK  145  A    between atoms: _364  and  _367
REMARK  146  A    between atoms: _367  and  _368
REMARK  147  A    between atoms: _373  and  _375
REMARK  148  A    between atoms: _375  and  _376
REMARK  149  A    between atoms: _378  and  _380
REMARK  150  A    between atoms: _380  and  _381
REMARK  151  A    between atoms: _380  and  _383
REMARK  152  A    between atoms: _386  and  _388
REMARK  153  A    between atoms: _388  and  _389
REMARK  154  A    between atoms: _392  and  _394
REMARK  155  A    between atoms: _394  and  _395
REMARK  156  A    between atoms: _394  and  _397
REMARK  157  A    between atoms: _397  and  _398
REMARK  158  A    between atoms: _403  and  _405
REMARK  159  A    between atoms: _405  and  _406
REMARK  160  A    between atoms: _405  and  _408
REMARK  161  A    between atoms: _408  and  _409
REMARK  162  A    between atoms: _409  and  _410
REMARK  163  A    between atoms: _410  and  _411
REMARK  164  A    between atoms: _411  and  _412
REMARK  165  A    between atoms: _416  and  _418
REMARK  166  A    between atoms: _418  and  _419
REMARK  167  A    between atoms: _418  and  _421
REMARK  168  A    between atoms: _421  and  _422
REMARK  169  A    between atoms: _425  and  _427
REMARK  170  A    between atoms: _427  and  _428
REMARK  171  A    between atoms: _427  and  _430
REMARK  172  A    between atoms: _430  and  _431
REMARK  173  A    between atoms: _436  and  _438
REMARK  174  A    between atoms: _438  and  _439
REMARK  175  A    between atoms: _441  and  _443
REMARK  176  A    between atoms: _443  and  _444
REMARK  177  A    between atoms: _443  and  _446
REMARK  178  A    between atoms: _446  and  _447
REMARK  179  A    between atoms: _447  and  _448
REMARK  180  A    between atoms: _448  and  _449
REMARK  181  A    between atoms: _449  and  _450
REMARK  182  A    between atoms: _454  and  _456
REMARK  183  A    between atoms: _456  and  _457
REMARK  184  A    between atoms: _456  and  _459
REMARK  185  A    between atoms: _459  and  _460
REMARK  186  A    between atoms: _460  and  _461
REMARK  187  A    between atoms: _461  and  _462
REMARK  188  A    between atoms: _471  and  _473
REMARK  189  A    between atoms: _473  and  _474
REMARK  190  A    between atoms: _473  and  _476
REMARK  191  A    between atoms: _476  and  _477
REMARK  192  A    between atoms: _482  and  _484
REMARK  193  A    between atoms: _484  and  _485
REMARK  194  A    between atoms: _484  and  _487
REMARK  195  A    between atoms: _487  and  _488
REMARK  196  A    between atoms: _493  and  _494
REMARK  197  A    between atoms: _496  and  _498
REMARK  198  A    between atoms: _498  and  _499
REMARK  199  A    between atoms: _498  and  _501
REMARK  200  A    between atoms: _501  and  _502
REMARK  201  A    between atoms: _502  and  _503
REMARK  202  A    between atoms: _503  and  _504
REMARK  203  A    between atoms: _504  and  _505
REMARK  204  A    between atoms: _509  and  _511
REMARK  205  A    between atoms: _511  and  _512
REMARK  206  A    between atoms: _511  and  _514
REMARK  207  A    between atoms: _514  and  _515
REMARK  208  A    between atoms: _517  and  _519
REMARK  209  A    between atoms: _519  and  _520
REMARK  210  A    between atoms: _519  and  _522
REMARK  211  A    between atoms: _522  and  _523
REMARK  212  A    between atoms: _526  and  _528
REMARK  213  A    between atoms: _528  and  _529
REMARK  214  A    between atoms: _528  and  _531
REMARK  215  A    between atoms: _531  and  _532
REMARK  216  A    between atoms: _532  and  _533
REMARK  217  A    between atoms: _536  and  _538
REMARK  218  A    between atoms: _538  and  _539
REMARK  219  A    between atoms: _542  and  _544
REMARK  220  A    between atoms: _544  and  _545
REMARK  221  A    between atoms: _544  and  _547
REMARK  222  A    between atoms: _547  and  _548
REMARK  223  A    between atoms: _550  and  _552
REMARK  224  A    between atoms: _552  and  _553
REMARK  225  A    between atoms: _555  and  _557
REMARK  226  A    between atoms: _557  and  _558
REMARK  227  A    between atoms: _557  and  _560
REMARK  228  A    between atoms: _560  and  _561
REMARK  229  A    between atoms: _564  and  _566
REMARK  230  A    between atoms: _566  and  _567
REMARK  231  A    between atoms: _569  and  _571
REMARK  232  A    between atoms: _571  and  _572
REMARK  233  A    between atoms: _571  and  _574
REMARK  234  A    between atoms: _574  and  _575
REMARK  235  A    between atoms: _580  and  _582
REMARK  236  A    between atoms: _582  and  _583
REMARK  237  A    between atoms: _582  and  _585
REMARK  238  A    between atoms: _585  and  _586
REMARK  239  A    between atoms: _586  and  _587
REMARK  240  A    between atoms: _594  and  _595
REMARK  241  A    between atoms: _595  and  _611
REMARK  242  A    between atoms: _596  and  _598
REMARK  243  A    between atoms: _598  and  _599
REMARK  244  A    between atoms: _599  and  _600
REMARK  245  A    between atoms: _604  and  _606
REMARK  246  A    between atoms: _606  and  _607
REMARK  247  A    between atoms: _606  and  _614
REMARK  248  A    between atoms: _607  and  _608
REMARK  249  A    between atoms: _608  and  _609
REMARK  250  A    between atoms: _609  and  _610
REMARK  251  A    between atoms: _610  and  _611
REMARK  252  A    between atoms: _616  and  _618
REMARK  253  A    between atoms: _618  and  _619
REMARK  254  A    between atoms: _618  and  _621
REMARK  255  A    between atoms: _621  and  _622
REMARK  256  A    between atoms: _625  and  _627
REMARK  257  A    between atoms: _627  and  _628
REMARK  258  A    between atoms: _630  and  _632
REMARK  259  A    between atoms: _632  and  _633
REMARK  260  A    between atoms: _636  and  _638
REMARK  261  A    between atoms: _638  and  _639
REMARK  262  A    between atoms: _638  and  _641
REMARK  263  A    between atoms: _641  and  _642
REMARK  264  A    between atoms: _647  and  _648
REMARK                            x       y       z     vdW  Elec       q    Type
REMARK                         _______ _______ _______ _____ _____    ______ ____
ROOT
ATOM      1  O   HOH     1      36.156  22.102  17.589  0.00  0.00    +0.000 OA
ENDROOT
TORSDOF 0
REMARK  Name = ../refined-set-2016/2qrq/2qrq_pocket.pdb
REMARK  264 active torsions:
REMARK  status: ('A' for Active; 'I' for Inactive)
REMARK    1  A    between atoms: _1  and  _3
REMARK    2  A    between atoms: _3  and  _4
REMARK    3  A    between atoms: _3  and  _6
REMARK    4  A    between atoms: _6  and  _7
REMARK    5  A    between atoms: _12  and  _13
REMARK    6  A    between atoms: _15  and  _17
REMARK    7  A    between atoms: _17  and  _18
REMARK    8  A    between atoms: _17  and  _20
REMARK    9  A    between atoms: _20  and  _21
REMARK   10  A    between atoms: _24  and  _26
REMARK   11  A    between atoms: _26  and  _27
REMARK   12  A    between atoms: _26  and  _29
REMARK   13  A    between atoms: _29  and  _30
REMARK   14  A    between atoms: _30  and  _31
REMARK   15  A    between atoms: _34  and  _36
REMARK   16  A    between atoms: _36  and  _37
REMARK   17  A    between atoms: _39  and  _41
REMARK   18  A    between atoms: _41  and  _42
REMARK   19  A    between atoms: _41  and  _44
REMARK   20  A    between atoms: _44  and  _45
REMARK   21  A    between atoms: _50  and  _52
REMARK   22  A    between atoms: _52  and  _53
REMARK   23  A    between atoms: _55  and  _57
REMARK   24  A    between atoms: _57  and  _58
REMARK   25  A    between atoms: _60  and  _62
REMARK   26  A    between atoms: _62  and  _63
REMARK   27  A    between atoms: _62  and  _65
REMARK   28  A    between atoms: _65  and  _66
REMARK   29  A    between atoms: _69  and  _71
REMARK   30  A    between atoms: _71  and  _72
REMARK   31  A    between atoms: _74  and  _76
REMARK   32  A    between atoms: _76  and  _77
REMARK   33  A    between atoms: _76  and  _79
REMARK   34  A    between atoms: _79  and  _80
REMARK   35  A    between atoms: _80  and  _81
REMARK   36  A    between atoms: _81  and  _82
REMARK   37  A    between atoms: _91  and  _93
REMARK   38  A    between atoms: _93  and  _94
REMARK   39  A    between atoms: _93  and  _96
REMARK   40  A    between atoms: _96  and  _97
REMARK   41  A    between atoms: _100  and  _102
REMARK   42  A    between atoms: _102  and  _103
REMARK   43  A    between atoms: _106  and  _108
REMARK   44  A    between atoms: _108  and  _109
REMARK   45  A    between atoms: _108  and  _111
REMARK   46  A    between atoms: _111  and  _112
REMARK   47  A    between atoms: _118  and  _120
REMARK   48  A    between atoms: _120  and  _121
REMARK   49  A    between atoms: _120  and  _123
REMARK   50  A    between atoms: _123  and  _124
REMARK   51  A    between atoms: _127  and  _129
REMARK   52  A    between atoms: _129  and  _130
REMARK   53  A    between atoms: _129  and  _132
REMARK   54  A    between atoms: _132  and  _133
REMARK   55  A    between atoms: _138  and  _139
REMARK   56  A    between atoms: _142  and  _143
REMARK   57  A    between atoms: _148  and  _150
REMARK   58  A    between atoms: _150  and  _151
REMARK   59  A    between atoms: _150  and  _153
REMARK   60  A    between atoms: _153  and  _154
REMARK   61  A    between atoms: _159  and  _161
REMARK   62  A    between atoms: _161  and  _162
REMARK   63  A    between atoms: _161  and  _164
REMARK   64  A    between atoms: _164  and  _165
REMARK   65  A    between atoms: _168  and  _170
REMARK   66  A    between atoms: _170  and  _171
REMARK   67  A    between atoms: _170  and  _173
REMARK   68  A    between atoms: _173  and  _174
REMARK   69  A    between atoms: _179  and  _181
REMARK   70  A    between atoms: _181  and  _182
REMARK   71  A    between atoms: _181  and  _184
REMARK   72  A    between atoms: _184  and  _185
REMARK   73  A    between atoms: _191  and  _193
REMARK   74  A    between atoms: _193  and  _194
REMARK   75  A    between atoms: _193  and  _196
REMARK   76  A    between atoms: _196  and  _197
REMARK   77  A    between atoms: _203  and  _205
REMARK   78  A    between atoms: _205  and  _206
REMARK   79  A    between atoms: _205  and  _208
REMARK   80  A    between atoms: _208  and  _209
REMARK   81  A    between atoms: _209  and  _210
REMARK   82  A    between atoms: _213  and  _215
REMARK   83  A    between atoms: _215  and  _216
REMARK   84  A    between atoms: _215  and  _218
REMARK   85  A    between atoms: _218  and  _219
REMARK   86  A    between atoms: _219  and  _220
REMARK   87  A    between atoms: _220  and  _221
REMARK   88  A    between atoms: _230  and  _232
REMARK   89  A    between atoms: _232  and  _233
REMARK   90  A    between atoms: _232  and  _235
REMARK   91  A    between atoms: _235  and  _236
REMARK   92  A    between atoms: _236  and  _237
REMARK   93  A    between atoms: _240  and  _242
REMARK   94  A    between atoms: _242  and  _243
REMARK   95  A    between atoms: _242  and  _245
REMARK   96  A    between atoms: _245  and  _246
REMARK   97  A    between atoms: _251  and  _253
REMARK   98  A    between atoms: _253  and  _254
REMARK   99  A    between atoms: _253  and  _256
REMARK  100  A    between atoms: _256  and  _257
REMARK  101  A    between atoms: _260  and  _262
REMARK  102  A    between atoms: _262  and  _263
REMARK  103  A    between atoms: _262  and  _265
REMARK  104  A    between atoms: _265  and  _266
REMARK  105  A    between atoms: _269  and  _271
REMARK  106  A    between atoms: _271  and  _272
REMARK  107  A    between atoms: _271  and  _274
REMARK  108  A    between atoms: _274  and  _275
REMARK  109  A    between atoms: _280  and  _282
REMARK  110  A    between atoms: _282  and  _283
REMARK  111  A    between atoms: _282  and  _285
REMARK  112  A    between atoms: _285  and  _286
REMARK  113  A    between atoms: _289  and  _291
REMARK  114  A    between atoms: _291  and  _292
REMARK  115  A    between atoms: _291  and  _294
REMARK  116  A    between atoms: _294  and  _295
REMARK  117  A    between atoms: _300  and  _302
REMARK  118  A    between atoms: _302  and  _303
REMARK  119  A    between atoms: _302  and  _305
REMARK  120  A    between atoms: _305  and  _306
REMARK  121  A    between atoms: _311  and  _313
REMARK  122  A    between atoms: _313  and  _314
REMARK  123  A    between atoms: _313  and  _316
REMARK  124  A    between atoms: _316  and  _317
REMARK  125  A    between atoms: _320  and  _322
REMARK  126  A    between atoms: _322  and  _323
REMARK  127  A    between atoms: _322  and  _325
REMARK  128  A    between atoms: _328  and  _330
REMARK  129  A    between atoms: _330  and  _331
REMARK  130  A    between atoms: _330  and  _333
REMARK  131  A    between atoms: _333  and  _334
REMARK  132  A    between atoms: _337  and  _339
REMARK  133  A    between atoms: _339  and  _340
REMARK  134  A    between atoms: _343  and  _345
REMARK  135  A    between atoms: _345  and  _346
REMARK  136  A    between atoms: _345  and  _348
REMARK  137  A    between atoms: _348  and  _349
REMARK  138  A    between atoms: _352  and  _354
REMARK  139  A    between atoms: _354  and  _355
REMARK  140  A    between atoms: _354  and  _357
REMARK  141  A    between atoms: _357  and  _358
REMARK  142  A    between atoms: _358  and  _359
REMARK  143  A    between atoms: _362  and  _364
REMARK  144  A    between atoms: _364  and  _365
REMARK  145  A    between atoms: _364  and  _367
REMARK  146  A    between atoms: _367  and  _368
REMARK  147  A    between atoms: _373  and  _375
REMARK  148  A    between atoms: _375  and  _376
REMARK  149  A    between atoms: _378  and  _380
REMARK  150  A    between atoms: _380  and  _381
REMARK  151  A    between atoms: _380  and  _383
REMARK  152  A    between atoms: _386  and  _388
REMARK  153  A    between atoms: _388  and  _389
REMARK  154  A    between atoms: _392  and  _394
REMARK  155  A    between atoms: _394  and  _395
REMARK  156  A    between atoms: _394  and  _397
REMARK  157  A    between atoms: _397  and  _398
REMARK  158  A    between atoms: _403  and  _405
REMARK  159  A    between atoms: _405  and  _406
REMARK  160  A    between atoms: _405  and  _408
REMARK  161  A    between atoms: _408  and  _409
REMARK  162  A    between atoms: _409  and  _410
REMARK  163  A    between atoms: _410  and  _411
REMARK  164  A    between atoms: _411  and  _412
REMARK  165  A    between atoms: _416  and  _418
REMARK  166  A    between atoms: _418  and  _419
REMARK  167  A    between atoms: _418  and  _421
REMARK  168  A    between atoms: _421  and  _422
REMARK  169  A    between atoms: _425  and  _427
REMARK  170  A    between atoms: _427  and  _428
REMARK  171  A    between atoms: _427  and  _430
REMARK  172  A    between atoms: _430  and  _431
REMARK  173  A    between atoms: _436  and  _438
REMARK  174  A    between atoms: _438  and  _439
REMARK  175  A    between atoms: _441  and  _443
REMARK  176  A    between atoms: _443  and  _444
REMARK  177  A    between atoms: _443  and  _446
REMARK  178  A    between atoms: _446  and  _447
REMARK  179  A    between atoms: _447  and  _448
REMARK  180  A    between atoms: _448  and  _449
REMARK  181  A    between atoms: _449  and  _450
REMARK  182  A    between atoms: _454  and  _456
REMARK  183  A    between atoms: _456  and  _457
REMARK  184  A    between atoms: _456  and  _459
REMARK  185  A    between atoms: _459  and  _460
REMARK  186  A    between atoms: _460  and  _461
REMARK  187  A    between atoms: _461  and  _462
REMARK  188  A    between atoms: _471  and  _473
REMARK  189  A    between atoms: _473  and  _474
REMARK  190  A    between atoms: _473  and  _476
REMARK  191  A    between atoms: _476  and  _477
REMARK  192  A    between atoms: _482  and  _484
REMARK  193  A    between atoms: _484  and  _485
REMARK  194  A    between atoms: _484  and  _487
REMARK  195  A    between atoms: _487  and  _488
REMARK  196  A    between atoms: _493  and  _494
REMARK  197  A    between atoms: _496  and  _498
REMARK  198  A    between atoms: _498  and  _499
REMARK  199  A    between atoms: _498  and  _501
REMARK  200  A    between atoms: _501  and  _502
REMARK  201  A    between atoms: _502  and  _503
REMARK  202  A    between atoms: _503  and  _504
REMARK  203  A    between atoms: _504  and  _505
REMARK  204  A    between atoms: _509  and  _511
REMARK  205  A    between atoms: _511  and  _512
REMARK  206  A    between atoms: _511  and  _514
REMARK  207  A    between atoms: _514  and  _515
REMARK  208  A    between atoms: _517  and  _519
REMARK  209  A    between atoms: _519  and  _520
REMARK  210  A    between atoms: _519  and  _522
REMARK  211  A    between atoms: _522  and  _523
REMARK  212  A    between atoms: _526  and  _528
REMARK  213  A    between atoms: _528  and  _529
REMARK  214  A    between atoms: _528  and  _531
REMARK  215  A    between atoms: _531  and  _532
REMARK  216  A    between atoms: _532  and  _533
REMARK  217  A    between atoms: _536  and  _538
REMARK  218  A    between atoms: _538  and  _539
REMARK  219  A    between atoms: _542  and  _544
REMARK  220  A    between atoms: _544  and  _545
REMARK  221  A    between atoms: _544  and  _547
REMARK  222  A    between atoms: _547  and  _548
REMARK  223  A    between atoms: _550  and  _552
REMARK  224  A    between atoms: _552  and  _553
REMARK  225  A    between atoms: _555  and  _557
REMARK  226  A    between atoms: _557  and  _558
REMARK  227  A    between atoms: _557  and  _560
REMARK  228  A    between atoms: _560  and  _561
REMARK  229  A    between atoms: _564  and  _566
REMARK  230  A    between atoms: _566  and  _567
REMARK  231  A    between atoms: _569  and  _571
REMARK  232  A    between atoms: _571  and  _572
REMARK  233  A    between atoms: _571  and  _574
REMARK  234  A    between atoms: _574  and  _575
REMARK  235  A    between atoms: _580  and  _582
REMARK  236  A    between atoms: _582  and  _583
REMARK  237  A    between atoms: _582  and  _585
REMARK  238  A    between atoms: _585  and  _586
REMARK  239  A    between atoms: _586  and  _587
REMARK  240  A    between atoms: _594  and  _595
REMARK  241  A    between atoms: _595  and  _611
REMARK  242  A    between atoms: _596  and  _598
REMARK  243  A    between atoms: _598  and  _599
REMARK  244  A    between atoms: _599  and  _600
REMARK  245  A    between atoms: _604  and  _606
REMARK  246  A    between atoms: _606  and  _607
REMARK  247  A    between atoms: _606  and  _614
REMARK  248  A    between atoms: _607  and  _608
REMARK  249  A    between atoms: _608  and  _609
REMARK  250  A    between atoms: _609  and  _610
REMARK  251  A    between atoms: _610  and  _611
REMARK  252  A    between atoms: _616  and  _618
REMARK  253  A    between atoms: _618  and  _619
REMARK  254  A    between atoms: _618  and  _621
REMARK  255  A    between atoms: _621  and  _622
REMARK  256  A    between atoms: _625  and  _627
REMARK  257  A    between atoms: _627  and  _628
REMARK  258  A    between atoms: _630  and  _632
REMARK  259  A    between atoms: _632  and  _633
REMARK  260  A    between atoms: _636  and  _638
REMARK  261  A    between atoms: _638  and  _639
REMARK  262  A    between atoms: _638  and  _641
REMARK  263  A    between atoms: _641  and  _642
REMARK  264  A    between atoms: _647  and  _648
REMARK                            x       y       z     vdW  Elec       q    Type
REMARK                         _______ _______ _______ _____ _____    ______ ____
ROOT
ATOM      1  O   HOH     1      43.224  22.867  31.915  0.00  0.00    +0.000 OA
ENDROOT
TORSDOF 0
REMARK  Name = ../refined-set-2016/2qrq/2qrq_pocket.pdb
REMARK  264 active torsions:
REMARK  status: ('A' for Active; 'I' for Inactive)
REMARK    1  A    between atoms: _1  and  _3
REMARK    2  A    between atoms: _3  and  _4
REMARK    3  A    between atoms: _3  and  _6
REMARK    4  A    between atoms: _6  and  _7
REMARK    5  A    between atoms: _12  and  _13
REMARK    6  A    between atoms: _15  and  _17
REMARK    7  A    between atoms: _17  and  _18
REMARK    8  A    between atoms: _17  and  _20
REMARK    9  A    between atoms: _20  and  _21
REMARK   10  A    between atoms: _24  and  _26
REMARK   11  A    between atoms: _26  and  _27
REMARK   12  A    between atoms: _26  and  _29
REMARK   13  A    between atoms: _29  and  _30
REMARK   14  A    between atoms: _30  and  _31
REMARK   15  A    between atoms: _34  and  _36
REMARK   16  A    between atoms: _36  and  _37
REMARK   17  A    between atoms: _39  and  _41
REMARK   18  A    between atoms: _41  and  _42
REMARK   19  A    between atoms: _41  and  _44
REMARK   20  A    between atoms: _44  and  _45
REMARK   21  A    between atoms: _50  and  _52
REMARK   22  A    between atoms: _52  and  _53
REMARK   23  A    between atoms: _55  and  _57
REMARK   24  A    between atoms: _57  and  _58
REMARK   25  A    between atoms: _60  and  _62
REMARK   26  A    between atoms: _62  and  _63
REMARK   27  A    between atoms: _62  and  _65
REMARK   28  A    between atoms: _65  and  _66
REMARK   29  A    between atoms: _69  and  _71
REMARK   30  A    between atoms: _71  and  _72
REMARK   31  A    between atoms: _74  and  _76
REMARK   32  A    between atoms: _76  and  _77
REMARK   33  A    between atoms: _76  and  _79
REMARK   34  A    between atoms: _79  and  _80
REMARK   35  A    between atoms: _80  and  _81
REMARK   36  A    between atoms: _81  and  _82
REMARK   37  A    between atoms: _91  and  _93
REMARK   38  A    between atoms: _93  and  _94
REMARK   39  A    between atoms: _93  and  _96
REMARK   40  A    between atoms: _96  and  _97
REMARK   41  A    between atoms: _100  and  _102
REMARK   42  A    between atoms: _102  and  _103
REMARK   43  A    between atoms: _106  and  _108
REMARK   44  A    between atoms: _108  and  _109
REMARK   45  A    between atoms: _108  and  _111
REMARK   46  A    between atoms: _111  and  _112
REMARK   47  A    between atoms: _118  and  _120
REMARK   48  A    between atoms: _120  and  _121
REMARK   49  A    between atoms: _120  and  _123
REMARK   50  A    between atoms: _123  and  _124
REMARK   51  A    between atoms: _127  and  _129
REMARK   52  A    between atoms: _129  and  _130
REMARK   53  A    between atoms: _129  and  _132
REMARK   54  A    between atoms: _132  and  _133
REMARK   55  A    between atoms: _138  and  _139
REMARK   56  A    between atoms: _142  and  _143
REMARK   57  A    between atoms: _148  and  _150
REMARK   58  A    between atoms: _150  and  _151
REMARK   59  A    between atoms: _150  and  _153
REMARK   60  A    between atoms: _153  and  _154
REMARK   61  A    between atoms: _159  and  _161
REMARK   62  A    between atoms: _161  and  _162
REMARK   63  A    between atoms: _161  and  _164
REMARK   64  A    between atoms: _164  and  _165
REMARK   65  A    between atoms: _168  and  _170
REMARK   66  A    between atoms: _170  and  _171
REMARK   67  A    between atoms: _170  and  _173
REMARK   68  A    between atoms: _173  and  _174
REMARK   69  A    between atoms: _179  and  _181
REMARK   70  A    between atoms: _181  and  _182
REMARK   71  A    between atoms: _181  and  _184
REMARK   72  A    between atoms: _184  and  _185
REMARK   73  A    between atoms: _191  and  _193
REMARK   74  A    between atoms: _193  and  _194
REMARK   75  A    between atoms: _193  and  _196
REMARK   76  A    between atoms: _196  and  _197
REMARK   77  A    between atoms: _203  and  _205
REMARK   78  A    between atoms: _205  and  _206
REMARK   79  A    between atoms: _205  and  _208
REMARK   80  A    between atoms: _208  and  _209
REMARK   81  A    between atoms: _209  and  _210
REMARK   82  A    between atoms: _213  and  _215
REMARK   83  A    between atoms: _215  and  _216
REMARK   84  A    between atoms: _215  and  _218
REMARK   85  A    between atoms: _218  and  _219
REMARK   86  A    between atoms: _219  and  _220
REMARK   87  A    between atoms: _220  and  _221
REMARK   88  A    between atoms: _230  and  _232
REMARK   89  A    between atoms: _232  and  _233
REMARK   90  A    between atoms: _232  and  _235
REMARK   91  A    between atoms: _235  and  _236
REMARK   92  A    between atoms: _236  and  _237
REMARK   93  A    between atoms: _240  and  _242
REMARK   94  A    between atoms: _242  and  _243
REMARK   95  A    between atoms: _242  and  _245
REMARK   96  A    between atoms: _245  and  _246
REMARK   97  A    between atoms: _251  and  _253
REMARK   98  A    between atoms: _253  and  _254
REMARK   99  A    between atoms: _253  and  _256
REMARK  100  A    between atoms: _256  and  _257
REMARK  101  A    between atoms: _260  and  _262
REMARK  102  A    between atoms: _262  and  _263
REMARK  103  A    between atoms: _262  and  _265
REMARK  104  A    between atoms: _265  and  _266
REMARK  105  A    between atoms: _269  and  _271
REMARK  106  A    between atoms: _271  and  _272
REMARK  107  A    between atoms: _271  and  _274
REMARK  108  A    between atoms: _274  and  _275
REMARK  109  A    between atoms: _280  and  _282
REMARK  110  A    between atoms: _282  and  _283
REMARK  111  A    between atoms: _282  and  _285
REMARK  112  A    between atoms: _285  and  _286
REMARK  113  A    between atoms: _289  and  _291
REMARK  114  A    between atoms: _291  and  _292
REMARK  115  A    between atoms: _291  and  _294
REMARK  116  A    between atoms: _294  and  _295
REMARK  117  A    between atoms: _300  and  _302
REMARK  118  A    between atoms: _302  and  _303
REMARK  119  A    between atoms: _302  and  _305
REMARK  120  A    between atoms: _305  and  _306
REMARK  121  A    between atoms: _311  and  _313
REMARK  122  A    between atoms: _313  and  _314
REMARK  123  A    between atoms: _313  and  _316
REMARK  124  A    between atoms: _316  and  _317
REMARK  125  A    between atoms: _320  and  _322
REMARK  126  A    between atoms: _322  and  _323
REMARK  127  A    between atoms: _322  and  _325
REMARK  128  A    between atoms: _328  and  _330
REMARK  129  A    between atoms: _330  and  _331
REMARK  130  A    between atoms: _330  and  _333
REMARK  131  A    between atoms: _333  and  _334
REMARK  132  A    between atoms: _337  and  _339
REMARK  133  A    between atoms: _339  and  _340
REMARK  134  A    between atoms: _343  and  _345
REMARK  135  A    between atoms: _345  and  _346
REMARK  136  A    between atoms: _345  and  _348
REMARK  137  A    between atoms: _348  and  _349
REMARK  138  A    between atoms: _352  and  _354
REMARK  139  A    between atoms: _354  and  _355
REMARK  140  A    between atoms: _354  and  _357
REMARK  141  A    between atoms: _357  and  _358
REMARK  142  A    between atoms: _358  and  _359
REMARK  143  A    between atoms: _362  and  _364
REMARK  144  A    between atoms: _364  and  _365
REMARK  145  A    between atoms: _364  and  _367
REMARK  146  A    between atoms: _367  and  _368
REMARK  147  A    between atoms: _373  and  _375
REMARK  148  A    between atoms: _375  and  _376
REMARK  149  A    between atoms: _378  and  _380
REMARK  150  A    between atoms: _380  and  _381
REMARK  151  A    between atoms: _380  and  _383
REMARK  152  A    between atoms: _386  and  _388
REMARK  153  A    between atoms: _388  and  _389
REMARK  154  A    between atoms: _392  and  _394
REMARK  155  A    between atoms: _394  and  _395
REMARK  156  A    between atoms: _394  and  _397
REMARK  157  A    between atoms: _397  and  _398
REMARK  158  A    between atoms: _403  and  _405
REMARK  159  A    between atoms: _405  and  _406
REMARK  160  A    between atoms: _405  and  _408
REMARK  161  A    between atoms: _408  and  _409
REMARK  162  A    between atoms: _409  and  _410
REMARK  163  A    between atoms: _410  and  _411
REMARK  164  A    between atoms: _411  and  _412
REMARK  165  A    between atoms: _416  and  _418
REMARK  166  A    between atoms: _418  and  _419
REMARK  167  A    between atoms: _418  and  _421
REMARK  168  A    between atoms: _421  and  _422
REMARK  169  A    between atoms: _425  and  _427
REMARK  170  A    between atoms: _427  and  _428
REMARK  171  A    between atoms: _427  and  _430
REMARK  172  A    between atoms: _430  and  _431
REMARK  173  A    between atoms: _436  and  _438
REMARK  174  A    between atoms: _438  and  _439
REMARK  175  A    between atoms: _441  and  _443
REMARK  176  A    between atoms: _443  and  _444
REMARK  177  A    between atoms: _443  and  _446
REMARK  178  A    between atoms: _446  and  _447
REMARK  179  A    between atoms: _447  and  _448
REMARK  180  A    between atoms: _448  and  _449
REMARK  181  A    between atoms: _449  and  _450
REMARK  182  A    between atoms: _454  and  _456
REMARK  183  A    between atoms: _456  and  _457
REMARK  184  A    between atoms: _456  and  _459
REMARK  185  A    between atoms: _459  and  _460
REMARK  186  A    between atoms: _460  and  _461
REMARK  187  A    between atoms: _461  and  _462
REMARK  188  A    between atoms: _471  and  _473
REMARK  189  A    between atoms: _473  and  _474
REMARK  190  A    between atoms: _473  and  _476
REMARK  191  A    between atoms: _476  and  _477
REMARK  192  A    between atoms: _482  and  _484
REMARK  193  A    between atoms: _484  and  _485
REMARK  194  A    between atoms: _484  and  _487
REMARK  195  A    between atoms: _487  and  _488
REMARK  196  A    between atoms: _493  and  _494
REMARK  197  A    between atoms: _496  and  _498
REMARK  198  A    between atoms: _498  and  _499
REMARK  199  A    between atoms: _498  and  _501
REMARK  200  A    between atoms: _501  and  _502
REMARK  201  A    between atoms: _502  and  _503
REMARK  202  A    between atoms: _503  and  _504
REMARK  203  A    between atoms: _504  and  _505
REMARK  204  A    between atoms: _509  and  _511
REMARK  205  A    between atoms: _511  and  _512
REMARK  206  A    between atoms: _511  and  _514
REMARK  207  A    between atoms: _514  and  _515
REMARK  208  A    between atoms: _517  and  _519
REMARK  209  A    between atoms: _519  and  _520
REMARK  210  A    between atoms: _519  and  _522
REMARK  211  A    between atoms: _522  and  _523
REMARK  212  A    between atoms: _526  and  _528
REMARK  213  A    between atoms: _528  and  _529
REMARK  214  A    between atoms: _528  and  _531
REMARK  215  A    between atoms: _531  and  _532
REMARK  216  A    between atoms: _532  and  _533
REMARK  217  A    between atoms: _536  and  _538
REMARK  218  A    between atoms: _538  and  _539
REMARK  219  A    between atoms: _542  and  _544
REMARK  220  A    between atoms: _544  and  _545
REMARK  221  A    between atoms: _544  and  _547
REMARK  222  A    between atoms: _547  and  _548
REMARK  223  A    between atoms: _550  and  _552
REMARK  224  A    between atoms: _552  and  _553
REMARK  225  A    between atoms: _555  and  _557
REMARK  226  A    between atoms: _557  and  _558
REMARK  227  A    between atoms: _557  and  _560
REMARK  228  A    between atoms: _560  and  _561
REMARK  229  A    between atoms: _564  and  _566
REMARK  230  A    between atoms: _566  and  _567
REMARK  231  A    between atoms: _569  and  _571
REMARK  232  A    between atoms: _571  and  _572
REMARK  233  A    between atoms: _571  and  _574
REMARK  234  A    between atoms: _574  and  _575
REMARK  235  A    between atoms: _580  and  _582
REMARK  236  A    between atoms: _582  and  _583
REMARK  237  A    between atoms: _582  and  _585
REMARK  238  A    between atoms: _585  and  _586
REMARK  239  A    between atoms: _586  and  _587
REMARK  240  A    between atoms: _594  and  _595
REMARK  241  A    between atoms: _595  and  _611
REMARK  242  A    between atoms: _596  and  _598
REMARK  243  A    between atoms: _598  and  _599
REMARK  244  A    between atoms: _599  and  _600
REMARK  245  A    between atoms: _604  and  _606
REMARK  246  A    between atoms: _606  and  _607
REMARK  247  A    between atoms: _606  and  _614
REMARK  248  A    between atoms: _607  and  _608
REMARK  249  A    between atoms: _608  and  _609
REMARK  250  A    between atoms: _609  and  _610
REMARK  251  A    between atoms: _610  and  _611
REMARK  252  A    between atoms: _616  and  _618
REMARK  253  A    between atoms: _618  and  _619
REMARK  254  A    between atoms: _618  and  _621
REMARK  255  A    between atoms: _621  and  _622
REMARK  256  A    between atoms: _625  and  _627
REMARK  257  A    between atoms: _627  and  _628
REMARK  258  A    between atoms: _630  and  _632
REMARK  259  A    between atoms: _632  and  _633
REMARK  260  A    between atoms: _636  and  _638
REMARK  261  A    between atoms: _638  and  _639
REMARK  262  A    between atoms: _638  and  _641
REMARK  263  A    between atoms: _641  and  _642
REMARK  264  A    between atoms: _647  and  _648
REMARK                            x       y       z     vdW  Elec       q    Type
REMARK                         _______ _______ _______ _____ _____    ______ ____
ROOT
ATOM      1  O   HOH     1      25.574  16.449  28.247  0.00  0.00    +0.000 OA
ENDROOT
TORSDOF 0
REMARK  Name = ../refined-set-2016/2qrq/2qrq_pocket.pdb
REMARK  264 active torsions:
REMARK  status: ('A' for Active; 'I' for Inactive)
REMARK    1  A    between atoms: _1  and  _3
REMARK    2  A    between atoms: _3  and  _4
REMARK    3  A    between atoms: _3  and  _6
REMARK    4  A    between atoms: _6  and  _7
REMARK    5  A    between atoms: _12  and  _13
REMARK    6  A    between atoms: _15  and  _17
REMARK    7  A    between atoms: _17  and  _18
REMARK    8  A    between atoms: _17  and  _20
REMARK    9  A    between atoms: _20  and  _21
REMARK   10  A    between atoms: _24  and  _26
REMARK   11  A    between atoms: _26  and  _27
REMARK   12  A    between atoms: _26  and  _29
REMARK   13  A    between atoms: _29  and  _30
REMARK   14  A    between atoms: _30  and  _31
REMARK   15  A    between atoms: _34  and  _36
REMARK   16  A    between atoms: _36  and  _37
REMARK   17  A    between atoms: _39  and  _41
REMARK   18  A    between atoms: _41  and  _42
REMARK   19  A    between atoms: _41  and  _44
REMARK   20  A    between atoms: _44  and  _45
REMARK   21  A    between atoms: _50  and  _52
REMARK   22  A    between atoms: _52  and  _53
REMARK   23  A    between atoms: _55  and  _57
REMARK   24  A    between atoms: _57  and  _58
REMARK   25  A    between atoms: _60  and  _62
REMARK   26  A    between atoms: _62  and  _63
REMARK   27  A    between atoms: _62  and  _65
REMARK   28  A    between atoms: _65  and  _66
REMARK   29  A    between atoms: _69  and  _71
REMARK   30  A    between atoms: _71  and  _72
REMARK   31  A    between atoms: _74  and  _76
REMARK   32  A    between atoms: _76  and  _77
REMARK   33  A    between atoms: _76  and  _79
REMARK   34  A    between atoms: _79  and  _80
REMARK   35  A    between atoms: _80  and  _81
REMARK   36  A    between atoms: _81  and  _82
REMARK   37  A    between atoms: _91  and  _93
REMARK   38  A    between atoms: _93  and  _94
REMARK   39  A    between atoms: _93  and  _96
REMARK   40  A    between atoms: _96  and  _97
REMARK   41  A    between atoms: _100  and  _102
REMARK   42  A    between atoms: _102  and  _103
REMARK   43  A    between atoms: _106  and  _108
REMARK   44  A    between atoms: _108  and  _109
REMARK   45  A    between atoms: _108  and  _111
REMARK   46  A    between atoms: _111  and  _112
REMARK   47  A    between atoms: _118  and  _120
REMARK   48  A    between atoms: _120  and  _121
REMARK   49  A    between atoms: _120  and  _123
REMARK   50  A    between atoms: _123  and  _124
REMARK   51  A    between atoms: _127  and  _129
REMARK   52  A    between atoms: _129  and  _130
REMARK   53  A    between atoms: _129  and  _132
REMARK   54  A    between atoms: _132  and  _133
REMARK   55  A    between atoms: _138  and  _139
REMARK   56  A    between atoms: _142  and  _143
REMARK   57  A    between atoms: _148  and  _150
REMARK   58  A    between atoms: _150  and  _151
REMARK   59  A    between atoms: _150  and  _153
REMARK   60  A    between atoms: _153  and  _154
REMARK   61  A    between atoms: _159  and  _161
REMARK   62  A    between atoms: _161  and  _162
REMARK   63  A    between atoms: _161  and  _164
REMARK   64  A    between atoms: _164  and  _165
REMARK   65  A    between atoms: _168  and  _170
REMARK   66  A    between atoms: _170  and  _171
REMARK   67  A    between atoms: _170  and  _173
REMARK   68  A    between atoms: _173  and  _174
REMARK   69  A    between atoms: _179  and  _181
REMARK   70  A    between atoms: _181  and  _182
REMARK   71  A    between atoms: _181  and  _184
REMARK   72  A    between atoms: _184  and  _185
REMARK   73  A    between atoms: _191  and  _193
REMARK   74  A    between atoms: _193  and  _194
REMARK   75  A    between atoms: _193  and  _196
REMARK   76  A    between atoms: _196  and  _197
REMARK   77  A    between atoms: _203  and  _205
REMARK   78  A    between atoms: _205  and  _206
REMARK   79  A    between atoms: _205  and  _208
REMARK   80  A    between atoms: _208  and  _209
REMARK   81  A    between atoms: _209  and  _210
REMARK   82  A    between atoms: _213  and  _215
REMARK   83  A    between atoms: _215  and  _216
REMARK   84  A    between atoms: _215  and  _218
REMARK   85  A    between atoms: _218  and  _219
REMARK   86  A    between atoms: _219  and  _220
REMARK   87  A    between atoms: _220  and  _221
REMARK   88  A    between atoms: _230  and  _232
REMARK   89  A    between atoms: _232  and  _233
REMARK   90  A    between atoms: _232  and  _235
REMARK   91  A    between atoms: _235  and  _236
REMARK   92  A    between atoms: _236  and  _237
REMARK   93  A    between atoms: _240  and  _242
REMARK   94  A    between atoms: _242  and  _243
REMARK   95  A    between atoms: _242  and  _245
REMARK   96  A    between atoms: _245  and  _246
REMARK   97  A    between atoms: _251  and  _253
REMARK   98  A    between atoms: _253  and  _254
REMARK   99  A    between atoms: _253  and  _256
REMARK  100  A    between atoms: _256  and  _257
REMARK  101  A    between atoms: _260  and  _262
REMARK  102  A    between atoms: _262  and  _263
REMARK  103  A    between atoms: _262  and  _265
REMARK  104  A    between atoms: _265  and  _266
REMARK  105  A    between atoms: _269  and  _271
REMARK  106  A    between atoms: _271  and  _272
REMARK  107  A    between atoms: _271  and  _274
REMARK  108  A    between atoms: _274  and  _275
REMARK  109  A    between atoms: _280  and  _282
REMARK  110  A    between atoms: _282  and  _283
REMARK  111  A    between atoms: _282  and  _285
REMARK  112  A    between atoms: _285  and  _286
REMARK  113  A    between atoms: _289  and  _291
REMARK  114  A    between atoms: _291  and  _292
REMARK  115  A    between atoms: _291  and  _294
REMARK  116  A    between atoms: _294  and  _295
REMARK  117  A    between atoms: _300  and  _302
REMARK  118  A    between atoms: _302  and  _303
REMARK  119  A    between atoms: _302  and  _305
REMARK  120  A    between atoms: _305  and  _306
REMARK  121  A    between atoms: _311  and  _313
REMARK  122  A    between atoms: _313  and  _314
REMARK  123  A    between atoms: _313  and  _316
REMARK  124  A    between atoms: _316  and  _317
REMARK  125  A    between atoms: _320  and  _322
REMARK  126  A    between atoms: _322  and  _323
REMARK  127  A    between atoms: _322  and  _325
REMARK  128  A    between atoms: _328  and  _330
REMARK  129  A    between atoms: _330  and  _331
REMARK  130  A    between atoms: _330  and  _333
REMARK  131  A    between atoms: _333  and  _334
REMARK  132  A    between atoms: _337  and  _339
REMARK  133  A    between atoms: _339  and  _340
REMARK  134  A    between atoms: _343  and  _345
REMARK  135  A    between atoms: _345  and  _346
REMARK  136  A    between atoms: _345  and  _348
REMARK  137  A    between atoms: _348  and  _349
REMARK  138  A    between atoms: _352  and  _354
REMARK  139  A    between atoms: _354  and  _355
REMARK  140  A    between atoms: _354  and  _357
REMARK  141  A    between atoms: _357  and  _358
REMARK  142  A    between atoms: _358  and  _359
REMARK  143  A    between atoms: _362  and  _364
REMARK  144  A    between atoms: _364  and  _365
REMARK  145  A    between atoms: _364  and  _367
REMARK  146  A    between atoms: _367  and  _368
REMARK  147  A    between atoms: _373  and  _375
REMARK  148  A    between atoms: _375  and  _376
REMARK  149  A    between atoms: _378  and  _380
REMARK  150  A    between atoms: _380  and  _381
REMARK  151  A    between atoms: _380  and  _383
REMARK  152  A    between atoms: _386  and  _388
REMARK  153  A    between atoms: _388  and  _389
REMARK  154  A    between atoms: _392  and  _394
REMARK  155  A    between atoms: _394  and  _395
REMARK  156  A    between atoms: _394  and  _397
REMARK  157  A    between atoms: _397  and  _398
REMARK  158  A    between atoms: _403  and  _405
REMARK  159  A    between atoms: _405  and  _406
REMARK  160  A    between atoms: _405  and  _408
REMARK  161  A    between atoms: _408  and  _409
REMARK  162  A    between atoms: _409  and  _410
REMARK  163  A    between atoms: _410  and  _411
REMARK  164  A    between atoms: _411  and  _412
REMARK  165  A    between atoms: _416  and  _418
REMARK  166  A    between atoms: _418  and  _419
REMARK  167  A    between atoms: _418  and  _421
REMARK  168  A    between atoms: _421  and  _422
REMARK  169  A    between atoms: _425  and  _427
REMARK  170  A    between atoms: _427  and  _428
REMARK  171  A    between atoms: _427  and  _430
REMARK  172  A    between atoms: _430  and  _431
REMARK  173  A    between atoms: _436  and  _438
REMARK  174  A    between atoms: _438  and  _439
REMARK  175  A    between atoms: _441  and  _443
REMARK  176  A    between atoms: _443  and  _444
REMARK  177  A    between atoms: _443  and  _446
REMARK  178  A    between atoms: _446  and  _447
REMARK  179  A    between atoms: _447  and  _448
REMARK  180  A    between atoms: _448  and  _449
REMARK  181  A    between atoms: _449  and  _450
REMARK  182  A    between atoms: _454  and  _456
REMARK  183  A    between atoms: _456  and  _457
REMARK  184  A    between atoms: _456  and  _459
REMARK  185  A    between atoms: _459  and  _460
REMARK  186  A    between atoms: _460  and  _461
REMARK  187  A    between atoms: _461  and  _462
REMARK  188  A    between atoms: _471  and  _473
REMARK  189  A    between atoms: _473  and  _474
REMARK  190  A    between atoms: _473  and  _476
REMARK  191  A    between atoms: _476  and  _477
REMARK  192  A    between atoms: _482  and  _484
REMARK  193  A    between atoms: _484  and  _485
REMARK  194  A    between atoms: _484  and  _487
REMARK  195  A    between atoms: _487  and  _488
REMARK  196  A    between atoms: _493  and  _494
REMARK  197  A    between atoms: _496  and  _498
REMARK  198  A    between atoms: _498  and  _499
REMARK  199  A    between atoms: _498  and  _501
REMARK  200  A    between atoms: _501  and  _502
REMARK  201  A    between atoms: _502  and  _503
REMARK  202  A    between atoms: _503  and  _504
REMARK  203  A    between atoms: _504  and  _505
REMARK  204  A    between atoms: _509  and  _511
REMARK  205  A    between atoms: _511  and  _512
REMARK  206  A    between atoms: _511  and  _514
REMARK  207  A    between atoms: _514  and  _515
REMARK  208  A    between atoms: _517  and  _519
REMARK  209  A    between atoms: _519  and  _520
REMARK  210  A    between atoms: _519  and  _522
REMARK  211  A    between atoms: _522  and  _523
REMARK  212  A    between atoms: _526  and  _528
REMARK  213  A    between atoms: _528  and  _529
REMARK  214  A    between atoms: _528  and  _531
REMARK  215  A    between atoms: _531  and  _532
REMARK  216  A    between atoms: _532  and  _533
REMARK  217  A    between atoms: _536  and  _538
REMARK  218  A    between atoms: _538  and  _539
REMARK  219  A    between atoms: _542  and  _544
REMARK  220  A    between atoms: _544  and  _545
REMARK  221  A    between atoms: _544  and  _547
REMARK  222  A    between atoms: _547  and  _548
REMARK  223  A    between atoms: _550  and  _552
REMARK  224  A    between atoms: _552  and  _553
REMARK  225  A    between atoms: _555  and  _557
REMARK  226  A    between atoms: _557  and  _558
REMARK  227  A    between atoms: _557  and  _560
REMARK  228  A    between atoms: _560  and  _561
REMARK  229  A    between atoms: _564  and  _566
REMARK  230  A    between atoms: _566  and  _567
REMARK  231  A    between atoms: _569  and  _571
REMARK  232  A    between atoms: _571  and  _572
REMARK  233  A    between atoms: _571  and  _574
REMARK  234  A    between atoms: _574  and  _575
REMARK  235  A    between atoms: _580  and  _582
REMARK  236  A    between atoms: _582  and  _583
REMARK  237  A    between atoms: _582  and  _585
REMARK  238  A    between atoms: _585  and  _586
REMARK  239  A    between atoms: _586  and  _587
REMARK  240  A    between atoms: _594  and  _595
REMARK  241  A    between atoms: _595  and  _611
REMARK  242  A    between atoms: _596  and  _598
REMARK  243  A    between atoms: _598  and  _599
REMARK  244  A    between atoms: _599  and  _600
REMARK  245  A    between atoms: _604  and  _606
REMARK  246  A    between atoms: _606  and  _607
REMARK  247  A    between atoms: _606  and  _614
REMARK  248  A    between atoms: _607  and  _608
REMARK  249  A    between atoms: _608  and  _609
REMARK  250  A    between atoms: _609  and  _610
REMARK  251  A    between atoms: _610  and  _611
REMARK  252  A    between atoms: _616  and  _618
REMARK  253  A    between atoms: _618  and  _619
REMARK  254  A    between atoms: _618  and  _621
REMARK  255  A    between atoms: _621  and  _622
REMARK  256  A    between atoms: _625  and  _627
REMARK  257  A    between atoms: _627  and  _628
REMARK  258  A    between atoms: _630  and  _632
REMARK  259  A    between atoms: _632  and  _633
REMARK  260  A    between atoms: _636  and  _638
REMARK  261  A    between atoms: _638  and  _639
REMARK  262  A    between atoms: _638  and  _641
REMARK  263  A    between atoms: _641  and  _642
REMARK  264  A    between atoms: _647  and  _648
REMARK                            x       y       z     vdW  Elec       q    Type
REMARK                         _______ _______ _______ _____ _____    ______ ____
ROOT
ATOM      1  O   HOH     1      42.224  20.217  29.551  0.00  0.00    +0.000 OA
ENDROOT
TORSDOF 0
REMARK  Name = ../refined-set-2016/2qrq/2qrq_pocket.pdb
REMARK  264 active torsions:
REMARK  status: ('A' for Active; 'I' for Inactive)
REMARK    1  A    between atoms: _1  and  _3
REMARK    2  A    between atoms: _3  and  _4
REMARK    3  A    between atoms: _3  and  _6
REMARK    4  A    between atoms: _6  and  _7
REMARK    5  A    between atoms: _12  and  _13
REMARK    6  A    between atoms: _15  and  _17
REMARK    7  A    between atoms: _17  and  _18
REMARK    8  A    between atoms: _17  and  _20
REMARK    9  A    between atoms: _20  and  _21
REMARK   10  A    between atoms: _24  and  _26
REMARK   11  A    between atoms: _26  and  _27
REMARK   12  A    between atoms: _26  and  _29
REMARK   13  A    between atoms: _29  and  _30
REMARK   14  A    between atoms: _30  and  _31
REMARK   15  A    between atoms: _34  and  _36
REMARK   16  A    between atoms: _36  and  _37
REMARK   17  A    between atoms: _39  and  _41
REMARK   18  A    between atoms: _41  and  _42
REMARK   19  A    between atoms: _41  and  _44
REMARK   20  A    between atoms: _44  and  _45
REMARK   21  A    between atoms: _50  and  _52
REMARK   22  A    between atoms: _52  and  _53
REMARK   23  A    between atoms: _55  and  _57
REMARK   24  A    between atoms: _57  and  _58
REMARK   25  A    between atoms: _60  and  _62
REMARK   26  A    between atoms: _62  and  _63
REMARK   27  A    between atoms: _62  and  _65
REMARK   28  A    between atoms: _65  and  _66
REMARK   29  A    between atoms: _69  and  _71
REMARK   30  A    between atoms: _71  and  _72
REMARK   31  A    between atoms: _74  and  _76
REMARK   32  A    between atoms: _76  and  _77
REMARK   33  A    between atoms: _76  and  _79
REMARK   34  A    between atoms: _79  and  _80
REMARK   35  A    between atoms: _80  and  _81
REMARK   36  A    between atoms: _81  and  _82
REMARK   37  A    between atoms: _91  and  _93
REMARK   38  A    between atoms: _93  and  _94
REMARK   39  A    between atoms: _93  and  _96
REMARK   40  A    between atoms: _96  and  _97
REMARK   41  A    between atoms: _100  and  _102
REMARK   42  A    between atoms: _102  and  _103
REMARK   43  A    between atoms: _106  and  _108
REMARK   44  A    between atoms: _108  and  _109
REMARK   45  A    between atoms: _108  and  _111
REMARK   46  A    between atoms: _111  and  _112
REMARK   47  A    between atoms: _118  and  _120
REMARK   48  A    between atoms: _120  and  _121
REMARK   49  A    between atoms: _120  and  _123
REMARK   50  A    between atoms: _123  and  _124
REMARK   51  A    between atoms: _127  and  _129
REMARK   52  A    between atoms: _129  and  _130
REMARK   53  A    between atoms: _129  and  _132
REMARK   54  A    between atoms: _132  and  _133
REMARK   55  A    between atoms: _138  and  _139
REMARK   56  A    between atoms: _142  and  _143
REMARK   57  A    between atoms: _148  and  _150
REMARK   58  A    between atoms: _150  and  _151
REMARK   59  A    between atoms: _150  and  _153
REMARK   60  A    between atoms: _153  and  _154
REMARK   61  A    between atoms: _159  and  _161
REMARK   62  A    between atoms: _161  and  _162
REMARK   63  A    between atoms: _161  and  _164
REMARK   64  A    between atoms: _164  and  _165
REMARK   65  A    between atoms: _168  and  _170
REMARK   66  A    between atoms: _170  and  _171
REMARK   67  A    between atoms: _170  and  _173
REMARK   68  A    between atoms: _173  and  _174
REMARK   69  A    between atoms: _179  and  _181
REMARK   70  A    between atoms: _181  and  _182
REMARK   71  A    between atoms: _181  and  _184
REMARK   72  A    between atoms: _184  and  _185
REMARK   73  A    between atoms: _191  and  _193
REMARK   74  A    between atoms: _193  and  _194
REMARK   75  A    between atoms: _193  and  _196
REMARK   76  A    between atoms: _196  and  _197
REMARK   77  A    between atoms: _203  and  _205
REMARK   78  A    between atoms: _205  and  _206
REMARK   79  A    between atoms: _205  and  _208
REMARK   80  A    between atoms: _208  and  _209
REMARK   81  A    between atoms: _209  and  _210
REMARK   82  A    between atoms: _213  and  _215
REMARK   83  A    between atoms: _215  and  _216
REMARK   84  A    between atoms: _215  and  _218
REMARK   85  A    between atoms: _218  and  _219
REMARK   86  A    between atoms: _219  and  _220
REMARK   87  A    between atoms: _220  and  _221
REMARK   88  A    between atoms: _230  and  _232
REMARK   89  A    between atoms: _232  and  _233
REMARK   90  A    between atoms: _232  and  _235
REMARK   91  A    between atoms: _235  and  _236
REMARK   92  A    between atoms: _236  and  _237
REMARK   93  A    between atoms: _240  and  _242
REMARK   94  A    between atoms: _242  and  _243
REMARK   95  A    between atoms: _242  and  _245
REMARK   96  A    between atoms: _245  and  _246
REMARK   97  A    between atoms: _251  and  _253
REMARK   98  A    between atoms: _253  and  _254
REMARK   99  A    between atoms: _253  and  _256
REMARK  100  A    between atoms: _256  and  _257
REMARK  101  A    between atoms: _260  and  _262
REMARK  102  A    between atoms: _262  and  _263
REMARK  103  A    between atoms: _262  and  _265
REMARK  104  A    between atoms: _265  and  _266
REMARK  105  A    between atoms: _269  and  _271
REMARK  106  A    between atoms: _271  and  _272
REMARK  107  A    between atoms: _271  and  _274
REMARK  108  A    between atoms: _274  and  _275
REMARK  109  A    between atoms: _280  and  _282
REMARK  110  A    between atoms: _282  and  _283
REMARK  111  A    between atoms: _282  and  _285
REMARK  112  A    between atoms: _285  and  _286
REMARK  113  A    between atoms: _289  and  _291
REMARK  114  A    between atoms: _291  and  _292
REMARK  115  A    between atoms: _291  and  _294
REMARK  116  A    between atoms: _294  and  _295
REMARK  117  A    between atoms: _300  and  _302
REMARK  118  A    between atoms: _302  and  _303
REMARK  119  A    between atoms: _302  and  _305
REMARK  120  A    between atoms: _305  and  _306
REMARK  121  A    between atoms: _311  and  _313
REMARK  122  A    between atoms: _313  and  _314
REMARK  123  A    between atoms: _313  and  _316
REMARK  124  A    between atoms: _316  and  _317
REMARK  125  A    between atoms: _320  and  _322
REMARK  126  A    between atoms: _322  and  _323
REMARK  127  A    between atoms: _322  and  _325
REMARK  128  A    between atoms: _328  and  _330
REMARK  129  A    between atoms: _330  and  _331
REMARK  130  A    between atoms: _330  and  _333
REMARK  131  A    between atoms: _333  and  _334
REMARK  132  A    between atoms: _337  and  _339
REMARK  133  A    between atoms: _339  and  _340
REMARK  134  A    between atoms: _343  and  _345
REMARK  135  A    between atoms: _345  and  _346
REMARK  136  A    between atoms: _345  and  _348
REMARK  137  A    between atoms: _348  and  _349
REMARK  138  A    between atoms: _352  and  _354
REMARK  139  A    between atoms: _354  and  _355
REMARK  140  A    between atoms: _354  and  _357
REMARK  141  A    between atoms: _357  and  _358
REMARK  142  A    between atoms: _358  and  _359
REMARK  143  A    between atoms: _362  and  _364
REMARK  144  A    between atoms: _364  and  _365
REMARK  145  A    between atoms: _364  and  _367
REMARK  146  A    between atoms: _367  and  _368
REMARK  147  A    between atoms: _373  and  _375
REMARK  148  A    between atoms: _375  and  _376
REMARK  149  A    between atoms: _378  and  _380
REMARK  150  A    between atoms: _380  and  _381
REMARK  151  A    between atoms: _380  and  _383
REMARK  152  A    between atoms: _386  and  _388
REMARK  153  A    between atoms: _388  and  _389
REMARK  154  A    between atoms: _392  and  _394
REMARK  155  A    between atoms: _394  and  _395
REMARK  156  A    between atoms: _394  and  _397
REMARK  157  A    between atoms: _397  and  _398
REMARK  158  A    between atoms: _403  and  _405
REMARK  159  A    between atoms: _405  and  _406
REMARK  160  A    between atoms: _405  and  _408
REMARK  161  A    between atoms: _408  and  _409
REMARK  162  A    between atoms: _409  and  _410
REMARK  163  A    between atoms: _410  and  _411
REMARK  164  A    between atoms: _411  and  _412
REMARK  165  A    between atoms: _416  and  _418
REMARK  166  A    between atoms: _418  and  _419
REMARK  167  A    between atoms: _418  and  _421
REMARK  168  A    between atoms: _421  and  _422
REMARK  169  A    between atoms: _425  and  _427
REMARK  170  A    between atoms: _427  and  _428
REMARK  171  A    between atoms: _427  and  _430
REMARK  172  A    between atoms: _430  and  _431
REMARK  173  A    between atoms: _436  and  _438
REMARK  174  A    between atoms: _438  and  _439
REMARK  175  A    between atoms: _441  and  _443
REMARK  176  A    between atoms: _443  and  _444
REMARK  177  A    between atoms: _443  and  _446
REMARK  178  A    between atoms: _446  and  _447
REMARK  179  A    between atoms: _447  and  _448
REMARK  180  A    between atoms: _448  and  _449
REMARK  181  A    between atoms: _449  and  _450
REMARK  182  A    between atoms: _454  and  _456
REMARK  183  A    between atoms: _456  and  _457
REMARK  184  A    between atoms: _456  and  _459
REMARK  185  A    between atoms: _459  and  _460
REMARK  186  A    between atoms: _460  and  _461
REMARK  187  A    between atoms: _461  and  _462
REMARK  188  A    between atoms: _471  and  _473
REMARK  189  A    between atoms: _473  and  _474
REMARK  190  A    between atoms: _473  and  _476
REMARK  191  A    between atoms: _476  and  _477
REMARK  192  A    between atoms: _482  and  _484
REMARK  193  A    between atoms: _484  and  _485
REMARK  194  A    between atoms: _484  and  _487
REMARK  195  A    between atoms: _487  and  _488
REMARK  196  A    between atoms: _493  and  _494
REMARK  197  A    between atoms: _496  and  _498
REMARK  198  A    between atoms: _498  and  _499
REMARK  199  A    between atoms: _498  and  _501
REMARK  200  A    between atoms: _501  and  _502
REMARK  201  A    between atoms: _502  and  _503
REMARK  202  A    between atoms: _503  and  _504
REMARK  203  A    between atoms: _504  and  _505
REMARK  204  A    between atoms: _509  and  _511
REMARK  205  A    between atoms: _511  and  _512
REMARK  206  A    between atoms: _511  and  _514
REMARK  207  A    between atoms: _514  and  _515
REMARK  208  A    between atoms: _517  and  _519
REMARK  209  A    between atoms: _519  and  _520
REMARK  210  A    between atoms: _519  and  _522
REMARK  211  A    between atoms: _522  and  _523
REMARK  212  A    between atoms: _526  and  _528
REMARK  213  A    between atoms: _528  and  _529
REMARK  214  A    between atoms: _528  and  _531
REMARK  215  A    between atoms: _531  and  _532
REMARK  216  A    between atoms: _532  and  _533
REMARK  217  A    between atoms: _536  and  _538
REMARK  218  A    between atoms: _538  and  _539
REMARK  219  A    between atoms: _542  and  _544
REMARK  220  A    between atoms: _544  and  _545
REMARK  221  A    between atoms: _544  and  _547
REMARK  222  A    between atoms: _547  and  _548
REMARK  223  A    between atoms: _550  and  _552
REMARK  224  A    between atoms: _552  and  _553
REMARK  225  A    between atoms: _555  and  _557
REMARK  226  A    between atoms: _557  and  _558
REMARK  227  A    between atoms: _557  and  _560
REMARK  228  A    between atoms: _560  and  _561
REMARK  229  A    between atoms: _564  and  _566
REMARK  230  A    between atoms: _566  and  _567
REMARK  231  A    between atoms: _569  and  _571
REMARK  232  A    between atoms: _571  and  _572
REMARK  233  A    between atoms: _571  and  _574
REMARK  234  A    between atoms: _574  and  _575
REMARK  235  A    between atoms: _580  and  _582
REMARK  236  A    between atoms: _582  and  _583
REMARK  237  A    between atoms: _582  and  _585
REMARK  238  A    between atoms: _585  and  _586
REMARK  239  A    between atoms: _586  and  _587
REMARK  240  A    between atoms: _594  and  _595
REMARK  241  A    between atoms: _595  and  _611
REMARK  242  A    between atoms: _596  and  _598
REMARK  243  A    between atoms: _598  and  _599
REMARK  244  A    between atoms: _599  and  _600
REMARK  245  A    between atoms: _604  and  _606
REMARK  246  A    between atoms: _606  and  _607
REMARK  247  A    between atoms: _606  and  _614
REMARK  248  A    between atoms: _607  and  _608
REMARK  249  A    between atoms: _608  and  _609
REMARK  250  A    between atoms: _609  and  _610
REMARK  251  A    between atoms: _610  and  _611
REMARK  252  A    between atoms: _616  and  _618
REMARK  253  A    between atoms: _618  and  _619
REMARK  254  A    between atoms: _618  and  _621
REMARK  255  A    between atoms: _621  and  _622
REMARK  256  A    between atoms: _625  and  _627
REMARK  257  A    between atoms: _627  and  _628
REMARK  258  A    between atoms: _630  and  _632
REMARK  259  A    between atoms: _632  and  _633
REMARK  260  A    between atoms: _636  and  _638
REMARK  261  A    between atoms: _638  and  _639
REMARK  262  A    between atoms: _638  and  _641
REMARK  263  A    between atoms: _641  and  _642
REMARK  264  A    between atoms: _647  and  _648
REMARK                            x       y       z     vdW  Elec       q    Type
REMARK                         _______ _______ _______ _____ _____    ______ ____
ROOT
ATOM      1  O   HOH     1      35.649  24.633  23.746  0.00  0.00    +0.000 OA
ENDROOT
TORSDOF 0
REMARK  Name = ../refined-set-2016/2qrq/2qrq_pocket.pdb
REMARK  264 active torsions:
REMARK  status: ('A' for Active; 'I' for Inactive)
REMARK    1  A    between atoms: _1  and  _3
REMARK    2  A    between atoms: _3  and  _4
REMARK    3  A    between atoms: _3  and  _6
REMARK    4  A    between atoms: _6  and  _7
REMARK    5  A    between atoms: _12  and  _13
REMARK    6  A    between atoms: _15  and  _17
REMARK    7  A    between atoms: _17  and  _18
REMARK    8  A    between atoms: _17  and  _20
REMARK    9  A    between atoms: _20  and  _21
REMARK   10  A    between atoms: _24  and  _26
REMARK   11  A    between atoms: _26  and  _27
REMARK   12  A    between atoms: _26  and  _29
REMARK   13  A    between atoms: _29  and  _30
REMARK   14  A    between atoms: _30  and  _31
REMARK   15  A    between atoms: _34  and  _36
REMARK   16  A    between atoms: _36  and  _37
REMARK   17  A    between atoms: _39  and  _41
REMARK   18  A    between atoms: _41  and  _42
REMARK   19  A    between atoms: _41  and  _44
REMARK   20  A    between atoms: _44  and  _45
REMARK   21  A    between atoms: _50  and  _52
REMARK   22  A    between atoms: _52  and  _53
REMARK   23  A    between atoms: _55  and  _57
REMARK   24  A    between atoms: _57  and  _58
REMARK   25  A    between atoms: _60  and  _62
REMARK   26  A    between atoms: _62  and  _63
REMARK   27  A    between atoms: _62  and  _65
REMARK   28  A    between atoms: _65  and  _66
REMARK   29  A    between atoms: _69  and  _71
REMARK   30  A    between atoms: _71  and  _72
REMARK   31  A    between atoms: _74  and  _76
REMARK   32  A    between atoms: _76  and  _77
REMARK   33  A    between atoms: _76  and  _79
REMARK   34  A    between atoms: _79  and  _80
REMARK   35  A    between atoms: _80  and  _81
REMARK   36  A    between atoms: _81  and  _82
REMARK   37  A    between atoms: _91  and  _93
REMARK   38  A    between atoms: _93  and  _94
REMARK   39  A    between atoms: _93  and  _96
REMARK   40  A    between atoms: _96  and  _97
REMARK   41  A    between atoms: _100  and  _102
REMARK   42  A    between atoms: _102  and  _103
REMARK   43  A    between atoms: _106  and  _108
REMARK   44  A    between atoms: _108  and  _109
REMARK   45  A    between atoms: _108  and  _111
REMARK   46  A    between atoms: _111  and  _112
REMARK   47  A    between atoms: _118  and  _120
REMARK   48  A    between atoms: _120  and  _121
REMARK   49  A    between atoms: _120  and  _123
REMARK   50  A    between atoms: _123  and  _124
REMARK   51  A    between atoms: _127  and  _129
REMARK   52  A    between atoms: _129  and  _130
REMARK   53  A    between atoms: _129  and  _132
REMARK   54  A    between atoms: _132  and  _133
REMARK   55  A    between atoms: _138  and  _139
REMARK   56  A    between atoms: _142  and  _143
REMARK   57  A    between atoms: _148  and  _150
REMARK   58  A    between atoms: _150  and  _151
REMARK   59  A    between atoms: _150  and  _153
REMARK   60  A    between atoms: _153  and  _154
REMARK   61  A    between atoms: _159  and  _161
REMARK   62  A    between atoms: _161  and  _162
REMARK   63  A    between atoms: _161  and  _164
REMARK   64  A    between atoms: _164  and  _165
REMARK   65  A    between atoms: _168  and  _170
REMARK   66  A    between atoms: _170  and  _171
REMARK   67  A    between atoms: _170  and  _173
REMARK   68  A    between atoms: _173  and  _174
REMARK   69  A    between atoms: _179  and  _181
REMARK   70  A    between atoms: _181  and  _182
REMARK   71  A    between atoms: _181  and  _184
REMARK   72  A    between atoms: _184  and  _185
REMARK   73  A    between atoms: _191  and  _193
REMARK   74  A    between atoms: _193  and  _194
REMARK   75  A    between atoms: _193  and  _196
REMARK   76  A    between atoms: _196  and  _197
REMARK   77  A    between atoms: _203  and  _205
REMARK   78  A    between atoms: _205  and  _206
REMARK   79  A    between atoms: _205  and  _208
REMARK   80  A    between atoms: _208  and  _209
REMARK   81  A    between atoms: _209  and  _210
REMARK   82  A    between atoms: _213  and  _215
REMARK   83  A    between atoms: _215  and  _216
REMARK   84  A    between atoms: _215  and  _218
REMARK   85  A    between atoms: _218  and  _219
REMARK   86  A    between atoms: _219  and  _220
REMARK   87  A    between atoms: _220  and  _221
REMARK   88  A    between atoms: _230  and  _232
REMARK   89  A    between atoms: _232  and  _233
REMARK   90  A    between atoms: _232  and  _235
REMARK   91  A    between atoms: _235  and  _236
REMARK   92  A    between atoms: _236  and  _237
REMARK   93  A    between atoms: _240  and  _242
REMARK   94  A    between atoms: _242  and  _243
REMARK   95  A    between atoms: _242  and  _245
REMARK   96  A    between atoms: _245  and  _246
REMARK   97  A    between atoms: _251  and  _253
REMARK   98  A    between atoms: _253  and  _254
REMARK   99  A    between atoms: _253  and  _256
REMARK  100  A    between atoms: _256  and  _257
REMARK  101  A    between atoms: _260  and  _262
REMARK  102  A    between atoms: _262  and  _263
REMARK  103  A    between atoms: _262  and  _265
REMARK  104  A    between atoms: _265  and  _266
REMARK  105  A    between atoms: _269  and  _271
REMARK  106  A    between atoms: _271  and  _272
REMARK  107  A    between atoms: _271  and  _274
REMARK  108  A    between atoms: _274  and  _275
REMARK  109  A    between atoms: _280  and  _282
REMARK  110  A    between atoms: _282  and  _283
REMARK  111  A    between atoms: _282  and  _285
REMARK  112  A    between atoms: _285  and  _286
REMARK  113  A    between atoms: _289  and  _291
REMARK  114  A    between atoms: _291  and  _292
REMARK  115  A    between atoms: _291  and  _294
REMARK  116  A    between atoms: _294  and  _295
REMARK  117  A    between atoms: _300  and  _302
REMARK  118  A    between atoms: _302  and  _303
REMARK  119  A    between atoms: _302  and  _305
REMARK  120  A    between atoms: _305  and  _306
REMARK  121  A    between atoms: _311  and  _313
REMARK  122  A    between atoms: _313  and  _314
REMARK  123  A    between atoms: _313  and  _316
REMARK  124  A    between atoms: _316  and  _317
REMARK  125  A    between atoms: _320  and  _322
REMARK  126  A    between atoms: _322  and  _323
REMARK  127  A    between atoms: _322  and  _325
REMARK  128  A    between atoms: _328  and  _330
REMARK  129  A    between atoms: _330  and  _331
REMARK  130  A    between atoms: _330  and  _333
REMARK  131  A    between atoms: _333  and  _334
REMARK  132  A    between atoms: _337  and  _339
REMARK  133  A    between atoms: _339  and  _340
REMARK  134  A    between atoms: _343  and  _345
REMARK  135  A    between atoms: _345  and  _346
REMARK  136  A    between atoms: _345  and  _348
REMARK  137  A    between atoms: _348  and  _349
REMARK  138  A    between atoms: _352  and  _354
REMARK  139  A    between atoms: _354  and  _355
REMARK  140  A    between atoms: _354  and  _357
REMARK  141  A    between atoms: _357  and  _358
REMARK  142  A    between atoms: _358  and  _359
REMARK  143  A    between atoms: _362  and  _364
REMARK  144  A    between atoms: _364  and  _365
REMARK  145  A    between atoms: _364  and  _367
REMARK  146  A    between atoms: _367  and  _368
REMARK  147  A    between atoms: _373  and  _375
REMARK  148  A    between atoms: _375  and  _376
REMARK  149  A    between atoms: _378  and  _380
REMARK  150  A    between atoms: _380  and  _381
REMARK  151  A    between atoms: _380  and  _383
REMARK  152  A    between atoms: _386  and  _388
REMARK  153  A    between atoms: _388  and  _389
REMARK  154  A    between atoms: _392  and  _394
REMARK  155  A    between atoms: _394  and  _395
REMARK  156  A    between atoms: _394  and  _397
REMARK  157  A    between atoms: _397  and  _398
REMARK  158  A    between atoms: _403  and  _405
REMARK  159  A    between atoms: _405  and  _406
REMARK  160  A    between atoms: _405  and  _408
REMARK  161  A    between atoms: _408  and  _409
REMARK  162  A    between atoms: _409  and  _410
REMARK  163  A    between atoms: _410  and  _411
REMARK  164  A    between atoms: _411  and  _412
REMARK  165  A    between atoms: _416  and  _418
REMARK  166  A    between atoms: _418  and  _419
REMARK  167  A    between atoms: _418  and  _421
REMARK  168  A    between atoms: _421  and  _422
REMARK  169  A    between atoms: _425  and  _427
REMARK  170  A    between atoms: _427  and  _428
REMARK  171  A    between atoms: _427  and  _430
REMARK  172  A    between atoms: _430  and  _431
REMARK  173  A    between atoms: _436  and  _438
REMARK  174  A    between atoms: _438  and  _439
REMARK  175  A    between atoms: _441  and  _443
REMARK  176  A    between atoms: _443  and  _444
REMARK  177  A    between atoms: _443  and  _446
REMARK  178  A    between atoms: _446  and  _447
REMARK  179  A    between atoms: _447  and  _448
REMARK  180  A    between atoms: _448  and  _449
REMARK  181  A    between atoms: _449  and  _450
REMARK  182  A    between atoms: _454  and  _456
REMARK  183  A    between atoms: _456  and  _457
REMARK  184  A    between atoms: _456  and  _459
REMARK  185  A    between atoms: _459  and  _460
REMARK  186  A    between atoms: _460  and  _461
REMARK  187  A    between atoms: _461  and  _462
REMARK  188  A    between atoms: _471  and  _473
REMARK  189  A    between atoms: _473  and  _474
REMARK  190  A    between atoms: _473  and  _476
REMARK  191  A    between atoms: _476  and  _477
REMARK  192  A    between atoms: _482  and  _484
REMARK  193  A    between atoms: _484  and  _485
REMARK  194  A    between atoms: _484  and  _487
REMARK  195  A    between atoms: _487  and  _488
REMARK  196  A    between atoms: _493  and  _494
REMARK  197  A    between atoms: _496  and  _498
REMARK  198  A    between atoms: _498  and  _499
REMARK  199  A    between atoms: _498  and  _501
REMARK  200  A    between atoms: _501  and  _502
REMARK  201  A    between atoms: _502  and  _503
REMARK  202  A    between atoms: _503  and  _504
REMARK  203  A    between atoms: _504  and  _505
REMARK  204  A    between atoms: _509  and  _511
REMARK  205  A    between atoms: _511  and  _512
REMARK  206  A    between atoms: _511  and  _514
REMARK  207  A    between atoms: _514  and  _515
REMARK  208  A    between atoms: _517  and  _519
REMARK  209  A    between atoms: _519  and  _520
REMARK  210  A    between atoms: _519  and  _522
REMARK  211  A    between atoms: _522  and  _523
REMARK  212  A    between atoms: _526  and  _528
REMARK  213  A    between atoms: _528  and  _529
REMARK  214  A    between atoms: _528  and  _531
REMARK  215  A    between atoms: _531  and  _532
REMARK  216  A    between atoms: _532  and  _533
REMARK  217  A    between atoms: _536  and  _538
REMARK  218  A    between atoms: _538  and  _539
REMARK  219  A    between atoms: _542  and  _544
REMARK  220  A    between atoms: _544  and  _545
REMARK  221  A    between atoms: _544  and  _547
REMARK  222  A    between atoms: _547  and  _548
REMARK  223  A    between atoms: _550  and  _552
REMARK  224  A    between atoms: _552  and  _553
REMARK  225  A    between atoms: _555  and  _557
REMARK  226  A    between atoms: _557  and  _558
REMARK  227  A    between atoms: _557  and  _560
REMARK  228  A    between atoms: _560  and  _561
REMARK  229  A    between atoms: _564  and  _566
REMARK  230  A    between atoms: _566  and  _567
REMARK  231  A    between atoms: _569  and  _571
REMARK  232  A    between atoms: _571  and  _572
REMARK  233  A    between atoms: _571  and  _574
REMARK  234  A    between atoms: _574  and  _575
REMARK  235  A    between atoms: _580  and  _582
REMARK  236  A    between atoms: _582  and  _583
REMARK  237  A    between atoms: _582  and  _585
REMARK  238  A    between atoms: _585  and  _586
REMARK  239  A    between atoms: _586  and  _587
REMARK  240  A    between atoms: _594  and  _595
REMARK  241  A    between atoms: _595  and  _611
REMARK  242  A    between atoms: _596  and  _598
REMARK  243  A    between atoms: _598  and  _599
REMARK  244  A    between atoms: _599  and  _600
REMARK  245  A    between atoms: _604  and  _606
REMARK  246  A    between atoms: _606  and  _607
REMARK  247  A    between atoms: _606  and  _614
REMARK  248  A    between atoms: _607  and  _608
REMARK  249  A    between atoms: _608  and  _609
REMARK  250  A    between atoms: _609  and  _610
REMARK  251  A    between atoms: _610  and  _611
REMARK  252  A    between atoms: _616  and  _618
REMARK  253  A    between atoms: _618  and  _619
REMARK  254  A    between atoms: _618  and  _621
REMARK  255  A    between atoms: _621  and  _622
REMARK  256  A    between atoms: _625  and  _627
REMARK  257  A    between atoms: _627  and  _628
REMARK  258  A    between atoms: _630  and  _632
REMARK  259  A    between atoms: _632  and  _633
REMARK  260  A    between atoms: _636  and  _638
REMARK  261  A    between atoms: _638  and  _639
REMARK  262  A    between atoms: _638  and  _641
REMARK  263  A    between atoms: _641  and  _642
REMARK  264  A    between atoms: _647  and  _648
REMARK                            x       y       z     vdW  Elec       q    Type
REMARK                         _______ _______ _______ _____ _____    ______ ____
ROOT
ATOM      1  O   HOH     1      29.533  25.652  28.518  0.00  0.00    +0.000 OA
ENDROOT
TORSDOF 0
REMARK  Name = ../refined-set-2016/2qrq/2qrq_pocket.pdb
REMARK  264 active torsions:
REMARK  status: ('A' for Active; 'I' for Inactive)
REMARK    1  A    between atoms: _1  and  _3
REMARK    2  A    between atoms: _3  and  _4
REMARK    3  A    between atoms: _3  and  _6
REMARK    4  A    between atoms: _6  and  _7
REMARK    5  A    between atoms: _12  and  _13
REMARK    6  A    between atoms: _15  and  _17
REMARK    7  A    between atoms: _17  and  _18
REMARK    8  A    between atoms: _17  and  _20
REMARK    9  A    between atoms: _20  and  _21
REMARK   10  A    between atoms: _24  and  _26
REMARK   11  A    between atoms: _26  and  _27
REMARK   12  A    between atoms: _26  and  _29
REMARK   13  A    between atoms: _29  and  _30
REMARK   14  A    between atoms: _30  and  _31
REMARK   15  A    between atoms: _34  and  _36
REMARK   16  A    between atoms: _36  and  _37
REMARK   17  A    between atoms: _39  and  _41
REMARK   18  A    between atoms: _41  and  _42
REMARK   19  A    between atoms: _41  and  _44
REMARK   20  A    between atoms: _44  and  _45
REMARK   21  A    between atoms: _50  and  _52
REMARK   22  A    between atoms: _52  and  _53
REMARK   23  A    between atoms: _55  and  _57
REMARK   24  A    between atoms: _57  and  _58
REMARK   25  A    between atoms: _60  and  _62
REMARK   26  A    between atoms: _62  and  _63
REMARK   27  A    between atoms: _62  and  _65
REMARK   28  A    between atoms: _65  and  _66
REMARK   29  A    between atoms: _69  and  _71
REMARK   30  A    between atoms: _71  and  _72
REMARK   31  A    between atoms: _74  and  _76
REMARK   32  A    between atoms: _76  and  _77
REMARK   33  A    between atoms: _76  and  _79
REMARK   34  A    between atoms: _79  and  _80
REMARK   35  A    between atoms: _80  and  _81
REMARK   36  A    between atoms: _81  and  _82
REMARK   37  A    between atoms: _91  and  _93
REMARK   38  A    between atoms: _93  and  _94
REMARK   39  A    between atoms: _93  and  _96
REMARK   40  A    between atoms: _96  and  _97
REMARK   41  A    between atoms: _100  and  _102
REMARK   42  A    between atoms: _102  and  _103
REMARK   43  A    between atoms: _106  and  _108
REMARK   44  A    between atoms: _108  and  _109
REMARK   45  A    between atoms: _108  and  _111
REMARK   46  A    between atoms: _111  and  _112
REMARK   47  A    between atoms: _118  and  _120
REMARK   48  A    between atoms: _120  and  _121
REMARK   49  A    between atoms: _120  and  _123
REMARK   50  A    between atoms: _123  and  _124
REMARK   51  A    between atoms: _127  and  _129
REMARK   52  A    between atoms: _129  and  _130
REMARK   53  A    between atoms: _129  and  _132
REMARK   54  A    between atoms: _132  and  _133
REMARK   55  A    between atoms: _138  and  _139
REMARK   56  A    between atoms: _142  and  _143
REMARK   57  A    between atoms: _148  and  _150
REMARK   58  A    between atoms: _150  and  _151
REMARK   59  A    between atoms: _150  and  _153
REMARK   60  A    between atoms: _153  and  _154
REMARK   61  A    between atoms: _159  and  _161
REMARK   62  A    between atoms: _161  and  _162
REMARK   63  A    between atoms: _161  and  _164
REMARK   64  A    between atoms: _164  and  _165
REMARK   65  A    between atoms: _168  and  _170
REMARK   66  A    between atoms: _170  and  _171
REMARK   67  A    between atoms: _170  and  _173
REMARK   68  A    between atoms: _173  and  _174
REMARK   69  A    between atoms: _179  and  _181
REMARK   70  A    between atoms: _181  and  _182
REMARK   71  A    between atoms: _181  and  _184
REMARK   72  A    between atoms: _184  and  _185
REMARK   73  A    between atoms: _191  and  _193
REMARK   74  A    between atoms: _193  and  _194
REMARK   75  A    between atoms: _193  and  _196
REMARK   76  A    between atoms: _196  and  _197
REMARK   77  A    between atoms: _203  and  _205
REMARK   78  A    between atoms: _205  and  _206
REMARK   79  A    between atoms: _205  and  _208
REMARK   80  A    between atoms: _208  and  _209
REMARK   81  A    between atoms: _209  and  _210
REMARK   82  A    between atoms: _213  and  _215
REMARK   83  A    between atoms: _215  and  _216
REMARK   84  A    between atoms: _215  and  _218
REMARK   85  A    between atoms: _218  and  _219
REMARK   86  A    between atoms: _219  and  _220
REMARK   87  A    between atoms: _220  and  _221
REMARK   88  A    between atoms: _230  and  _232
REMARK   89  A    between atoms: _232  and  _233
REMARK   90  A    between atoms: _232  and  _235
REMARK   91  A    between atoms: _235  and  _236
REMARK   92  A    between atoms: _236  and  _237
REMARK   93  A    between atoms: _240  and  _242
REMARK   94  A    between atoms: _242  and  _243
REMARK   95  A    between atoms: _242  and  _245
REMARK   96  A    between atoms: _245  and  _246
REMARK   97  A    between atoms: _251  and  _253
REMARK   98  A    between atoms: _253  and  _254
REMARK   99  A    between atoms: _253  and  _256
REMARK  100  A    between atoms: _256  and  _257
REMARK  101  A    between atoms: _260  and  _262
REMARK  102  A    between atoms: _262  and  _263
REMARK  103  A    between atoms: _262  and  _265
REMARK  104  A    between atoms: _265  and  _266
REMARK  105  A    between atoms: _269  and  _271
REMARK  106  A    between atoms: _271  and  _272
REMARK  107  A    between atoms: _271  and  _274
REMARK  108  A    between atoms: _274  and  _275
REMARK  109  A    between atoms: _280  and  _282
REMARK  110  A    between atoms: _282  and  _283
REMARK  111  A    between atoms: _282  and  _285
REMARK  112  A    between atoms: _285  and  _286
REMARK  113  A    between atoms: _289  and  _291
REMARK  114  A    between atoms: _291  and  _292
REMARK  115  A    between atoms: _291  and  _294
REMARK  116  A    between atoms: _294  and  _295
REMARK  117  A    between atoms: _300  and  _302
REMARK  118  A    between atoms: _302  and  _303
REMARK  119  A    between atoms: _302  and  _305
REMARK  120  A    between atoms: _305  and  _306
REMARK  121  A    between atoms: _311  and  _313
REMARK  122  A    between atoms: _313  and  _314
REMARK  123  A    between atoms: _313  and  _316
REMARK  124  A    between atoms: _316  and  _317
REMARK  125  A    between atoms: _320  and  _322
REMARK  126  A    between atoms: _322  and  _323
REMARK  127  A    between atoms: _322  and  _325
REMARK  128  A    between atoms: _328  and  _330
REMARK  129  A    between atoms: _330  and  _331
REMARK  130  A    between atoms: _330  and  _333
REMARK  131  A    between atoms: _333  and  _334
REMARK  132  A    between atoms: _337  and  _339
REMARK  133  A    between atoms: _339  and  _340
REMARK  134  A    between atoms: _343  and  _345
REMARK  135  A    between atoms: _345  and  _346
REMARK  136  A    between atoms: _345  and  _348
REMARK  137  A    between atoms: _348  and  _349
REMARK  138  A    between atoms: _352  and  _354
REMARK  139  A    between atoms: _354  and  _355
REMARK  140  A    between atoms: _354  and  _357
REMARK  141  A    between atoms: _357  and  _358
REMARK  142  A    between atoms: _358  and  _359
REMARK  143  A    between atoms: _362  and  _364
REMARK  144  A    between atoms: _364  and  _365
REMARK  145  A    between atoms: _364  and  _367
REMARK  146  A    between atoms: _367  and  _368
REMARK  147  A    between atoms: _373  and  _375
REMARK  148  A    between atoms: _375  and  _376
REMARK  149  A    between atoms: _378  and  _380
REMARK  150  A    between atoms: _380  and  _381
REMARK  151  A    between atoms: _380  and  _383
REMARK  152  A    between atoms: _386  and  _388
REMARK  153  A    between atoms: _388  and  _389
REMARK  154  A    between atoms: _392  and  _394
REMARK  155  A    between atoms: _394  and  _395
REMARK  156  A    between atoms: _394  and  _397
REMARK  157  A    between atoms: _397  and  _398
REMARK  158  A    between atoms: _403  and  _405
REMARK  159  A    between atoms: _405  and  _406
REMARK  160  A    between atoms: _405  and  _408
REMARK  161  A    between atoms: _408  and  _409
REMARK  162  A    between atoms: _409  and  _410
REMARK  163  A    between atoms: _410  and  _411
REMARK  164  A    between atoms: _411  and  _412
REMARK  165  A    between atoms: _416  and  _418
REMARK  166  A    between atoms: _418  and  _419
REMARK  167  A    between atoms: _418  and  _421
REMARK  168  A    between atoms: _421  and  _422
REMARK  169  A    between atoms: _425  and  _427
REMARK  170  A    between atoms: _427  and  _428
REMARK  171  A    between atoms: _427  and  _430
REMARK  172  A    between atoms: _430  and  _431
REMARK  173  A    between atoms: _436  and  _438
REMARK  174  A    between atoms: _438  and  _439
REMARK  175  A    between atoms: _441  and  _443
REMARK  176  A    between atoms: _443  and  _444
REMARK  177  A    between atoms: _443  and  _446
REMARK  178  A    between atoms: _446  and  _447
REMARK  179  A    between atoms: _447  and  _448
REMARK  180  A    between atoms: _448  and  _449
REMARK  181  A    between atoms: _449  and  _450
REMARK  182  A    between atoms: _454  and  _456
REMARK  183  A    between atoms: _456  and  _457
REMARK  184  A    between atoms: _456  and  _459
REMARK  185  A    between atoms: _459  and  _460
REMARK  186  A    between atoms: _460  and  _461
REMARK  187  A    between atoms: _461  and  _462
REMARK  188  A    between atoms: _471  and  _473
REMARK  189  A    between atoms: _473  and  _474
REMARK  190  A    between atoms: _473  and  _476
REMARK  191  A    between atoms: _476  and  _477
REMARK  192  A    between atoms: _482  and  _484
REMARK  193  A    between atoms: _484  and  _485
REMARK  194  A    between atoms: _484  and  _487
REMARK  195  A    between atoms: _487  and  _488
REMARK  196  A    between atoms: _493  and  _494
REMARK  197  A    between atoms: _496  and  _498
REMARK  198  A    between atoms: _498  and  _499
REMARK  199  A    between atoms: _498  and  _501
REMARK  200  A    between atoms: _501  and  _502
REMARK  201  A    between atoms: _502  and  _503
REMARK  202  A    between atoms: _503  and  _504
REMARK  203  A    between atoms: _504  and  _505
REMARK  204  A    between atoms: _509  and  _511
REMARK  205  A    between atoms: _511  and  _512
REMARK  206  A    between atoms: _511  and  _514
REMARK  207  A    between atoms: _514  and  _515
REMARK  208  A    between atoms: _517  and  _519
REMARK  209  A    between atoms: _519  and  _520
REMARK  210  A    between atoms: _519  and  _522
REMARK  211  A    between atoms: _522  and  _523
REMARK  212  A    between atoms: _526  and  _528
REMARK  213  A    between atoms: _528  and  _529
REMARK  214  A    between atoms: _528  and  _531
REMARK  215  A    between atoms: _531  and  _532
REMARK  216  A    between atoms: _532  and  _533
REMARK  217  A    between atoms: _536  and  _538
REMARK  218  A    between atoms: _538  and  _539
REMARK  219  A    between atoms: _542  and  _544
REMARK  220  A    between atoms: _544  and  _545
REMARK  221  A    between atoms: _544  and  _547
REMARK  222  A    between atoms: _547  and  _548
REMARK  223  A    between atoms: _550  and  _552
REMARK  224  A    between atoms: _552  and  _553
REMARK  225  A    between atoms: _555  and  _557
REMARK  226  A    between atoms: _557  and  _558
REMARK  227  A    between atoms: _557  and  _560
REMARK  228  A    between atoms: _560  and  _561
REMARK  229  A    between atoms: _564  and  _566
REMARK  230  A    between atoms: _566  and  _567
REMARK  231  A    between atoms: _569  and  _571
REMARK  232  A    between atoms: _571  and  _572
REMARK  233  A    between atoms: _571  and  _574
REMARK  234  A    between atoms: _574  and  _575
REMARK  235  A    between atoms: _580  and  _582
REMARK  236  A    between atoms: _582  and  _583
REMARK  237  A    between atoms: _582  and  _585
REMARK  238  A    between atoms: _585  and  _586
REMARK  239  A    between atoms: _586  and  _587
REMARK  240  A    between atoms: _594  and  _595
REMARK  241  A    between atoms: _595  and  _611
REMARK  242  A    between atoms: _596  and  _598
REMARK  243  A    between atoms: _598  and  _599
REMARK  244  A    between atoms: _599  and  _600
REMARK  245  A    between atoms: _604  and  _606
REMARK  246  A    between atoms: _606  and  _607
REMARK  247  A    between atoms: _606  and  _614
REMARK  248  A    between atoms: _607  and  _608
REMARK  249  A    between atoms: _608  and  _609
REMARK  250  A    between atoms: _609  and  _610
REMARK  251  A    between atoms: _610  and  _611
REMARK  252  A    between atoms: _616  and  _618
REMARK  253  A    between atoms: _618  and  _619
REMARK  254  A    between atoms: _618  and  _621
REMARK  255  A    between atoms: _621  and  _622
REMARK  256  A    between atoms: _625  and  _627
REMARK  257  A    between atoms: _627  and  _628
REMARK  258  A    between atoms: _630  and  _632
REMARK  259  A    between atoms: _632  and  _633
REMARK  260  A    between atoms: _636  and  _638
REMARK  261  A    between atoms: _638  and  _639
REMARK  262  A    between atoms: _638  and  _641
REMARK  263  A    between atoms: _641  and  _642
REMARK  264  A    between atoms: _647  and  _648
REMARK                            x       y       z     vdW  Elec       q    Type
REMARK                         _______ _______ _______ _____ _____    ______ ____
ROOT
ATOM      1  O   HOH     1      35.146  24.754  36.964  0.00  0.00    +0.000 OA
ENDROOT
TORSDOF 0
REMARK  Name = ../refined-set-2016/2qrq/2qrq_pocket.pdb
REMARK  264 active torsions:
REMARK  status: ('A' for Active; 'I' for Inactive)
REMARK    1  A    between atoms: _1  and  _3
REMARK    2  A    between atoms: _3  and  _4
REMARK    3  A    between atoms: _3  and  _6
REMARK    4  A    between atoms: _6  and  _7
REMARK    5  A    between atoms: _12  and  _13
REMARK    6  A    between atoms: _15  and  _17
REMARK    7  A    between atoms: _17  and  _18
REMARK    8  A    between atoms: _17  and  _20
REMARK    9  A    between atoms: _20  and  _21
REMARK   10  A    between atoms: _24  and  _26
REMARK   11  A    between atoms: _26  and  _27
REMARK   12  A    between atoms: _26  and  _29
REMARK   13  A    between atoms: _29  and  _30
REMARK   14  A    between atoms: _30  and  _31
REMARK   15  A    between atoms: _34  and  _36
REMARK   16  A    between atoms: _36  and  _37
REMARK   17  A    between atoms: _39  and  _41
REMARK   18  A    between atoms: _41  and  _42
REMARK   19  A    between atoms: _41  and  _44
REMARK   20  A    between atoms: _44  and  _45
REMARK   21  A    between atoms: _50  and  _52
REMARK   22  A    between atoms: _52  and  _53
REMARK   23  A    between atoms: _55  and  _57
REMARK   24  A    between atoms: _57  and  _58
REMARK   25  A    between atoms: _60  and  _62
REMARK   26  A    between atoms: _62  and  _63
REMARK   27  A    between atoms: _62  and  _65
REMARK   28  A    between atoms: _65  and  _66
REMARK   29  A    between atoms: _69  and  _71
REMARK   30  A    between atoms: _71  and  _72
REMARK   31  A    between atoms: _74  and  _76
REMARK   32  A    between atoms: _76  and  _77
REMARK   33  A    between atoms: _76  and  _79
REMARK   34  A    between atoms: _79  and  _80
REMARK   35  A    between atoms: _80  and  _81
REMARK   36  A    between atoms: _81  and  _82
REMARK   37  A    between atoms: _91  and  _93
REMARK   38  A    between atoms: _93  and  _94
REMARK   39  A    between atoms: _93  and  _96
REMARK   40  A    between atoms: _96  and  _97
REMARK   41  A    between atoms: _100  and  _102
REMARK   42  A    between atoms: _102  and  _103
REMARK   43  A    between atoms: _106  and  _108
REMARK   44  A    between atoms: _108  and  _109
REMARK   45  A    between atoms: _108  and  _111
REMARK   46  A    between atoms: _111  and  _112
REMARK   47  A    between atoms: _118  and  _120
REMARK   48  A    between atoms: _120  and  _121
REMARK   49  A    between atoms: _120  and  _123
REMARK   50  A    between atoms: _123  and  _124
REMARK   51  A    between atoms: _127  and  _129
REMARK   52  A    between atoms: _129  and  _130
REMARK   53  A    between atoms: _129  and  _132
REMARK   54  A    between atoms: _132  and  _133
REMARK   55  A    between atoms: _138  and  _139
REMARK   56  A    between atoms: _142  and  _143
REMARK   57  A    between atoms: _148  and  _150
REMARK   58  A    between atoms: _150  and  _151
REMARK   59  A    between atoms: _150  and  _153
REMARK   60  A    between atoms: _153  and  _154
REMARK   61  A    between atoms: _159  and  _161
REMARK   62  A    between atoms: _161  and  _162
REMARK   63  A    between atoms: _161  and  _164
REMARK   64  A    between atoms: _164  and  _165
REMARK   65  A    between atoms: _168  and  _170
REMARK   66  A    between atoms: _170  and  _171
REMARK   67  A    between atoms: _170  and  _173
REMARK   68  A    between atoms: _173  and  _174
REMARK   69  A    between atoms: _179  and  _181
REMARK   70  A    between atoms: _181  and  _182
REMARK   71  A    between atoms: _181  and  _184
REMARK   72  A    between atoms: _184  and  _185
REMARK   73  A    between atoms: _191  and  _193
REMARK   74  A    between atoms: _193  and  _194
REMARK   75  A    between atoms: _193  and  _196
REMARK   76  A    between atoms: _196  and  _197
REMARK   77  A    between atoms: _203  and  _205
REMARK   78  A    between atoms: _205  and  _206
REMARK   79  A    between atoms: _205  and  _208
REMARK   80  A    between atoms: _208  and  _209
REMARK   81  A    between atoms: _209  and  _210
REMARK   82  A    between atoms: _213  and  _215
REMARK   83  A    between atoms: _215  and  _216
REMARK   84  A    between atoms: _215  and  _218
REMARK   85  A    between atoms: _218  and  _219
REMARK   86  A    between atoms: _219  and  _220
REMARK   87  A    between atoms: _220  and  _221
REMARK   88  A    between atoms: _230  and  _232
REMARK   89  A    between atoms: _232  and  _233
REMARK   90  A    between atoms: _232  and  _235
REMARK   91  A    between atoms: _235  and  _236
REMARK   92  A    between atoms: _236  and  _237
REMARK   93  A    between atoms: _240  and  _242
REMARK   94  A    between atoms: _242  and  _243
REMARK   95  A    between atoms: _242  and  _245
REMARK   96  A    between atoms: _245  and  _246
REMARK   97  A    between atoms: _251  and  _253
REMARK   98  A    between atoms: _253  and  _254
REMARK   99  A    between atoms: _253  and  _256
REMARK  100  A    between atoms: _256  and  _257
REMARK  101  A    between atoms: _260  and  _262
REMARK  102  A    between atoms: _262  and  _263
REMARK  103  A    between atoms: _262  and  _265
REMARK  104  A    between atoms: _265  and  _266
REMARK  105  A    between atoms: _269  and  _271
REMARK  106  A    between atoms: _271  and  _272
REMARK  107  A    between atoms: _271  and  _274
REMARK  108  A    between atoms: _274  and  _275
REMARK  109  A    between atoms: _280  and  _282
REMARK  110  A    between atoms: _282  and  _283
REMARK  111  A    between atoms: _282  and  _285
REMARK  112  A    between atoms: _285  and  _286
REMARK  113  A    between atoms: _289  and  _291
REMARK  114  A    between atoms: _291  and  _292
REMARK  115  A    between atoms: _291  and  _294
REMARK  116  A    between atoms: _294  and  _295
REMARK  117  A    between atoms: _300  and  _302
REMARK  118  A    between atoms: _302  and  _303
REMARK  119  A    between atoms: _302  and  _305
REMARK  120  A    between atoms: _305  and  _306
REMARK  121  A    between atoms: _311  and  _313
REMARK  122  A    between atoms: _313  and  _314
REMARK  123  A    between atoms: _313  and  _316
REMARK  124  A    between atoms: _316  and  _317
REMARK  125  A    between atoms: _320  and  _322
REMARK  126  A    between atoms: _322  and  _323
REMARK  127  A    between atoms: _322  and  _325
REMARK  128  A    between atoms: _328  and  _330
REMARK  129  A    between atoms: _330  and  _331
REMARK  130  A    between atoms: _330  and  _333
REMARK  131  A    between atoms: _333  and  _334
REMARK  132  A    between atoms: _337  and  _339
REMARK  133  A    between atoms: _339  and  _340
REMARK  134  A    between atoms: _343  and  _345
REMARK  135  A    between atoms: _345  and  _346
REMARK  136  A    between atoms: _345  and  _348
REMARK  137  A    between atoms: _348  and  _349
REMARK  138  A    between atoms: _352  and  _354
REMARK  139  A    between atoms: _354  and  _355
REMARK  140  A    between atoms: _354  and  _357
REMARK  141  A    between atoms: _357  and  _358
REMARK  142  A    between atoms: _358  and  _359
REMARK  143  A    between atoms: _362  and  _364
REMARK  144  A    between atoms: _364  and  _365
REMARK  145  A    between atoms: _364  and  _367
REMARK  146  A    between atoms: _367  and  _368
REMARK  147  A    between atoms: _373  and  _375
REMARK  148  A    between atoms: _375  and  _376
REMARK  149  A    between atoms: _378  and  _380
REMARK  150  A    between atoms: _380  and  _381
REMARK  151  A    between atoms: _380  and  _383
REMARK  152  A    between atoms: _386  and  _388
REMARK  153  A    between atoms: _388  and  _389
REMARK  154  A    between atoms: _392  and  _394
REMARK  155  A    between atoms: _394  and  _395
REMARK  156  A    between atoms: _394  and  _397
REMARK  157  A    between atoms: _397  and  _398
REMARK  158  A    between atoms: _403  and  _405
REMARK  159  A    between atoms: _405  and  _406
REMARK  160  A    between atoms: _405  and  _408
REMARK  161  A    between atoms: _408  and  _409
REMARK  162  A    between atoms: _409  and  _410
REMARK  163  A    between atoms: _410  and  _411
REMARK  164  A    between atoms: _411  and  _412
REMARK  165  A    between atoms: _416  and  _418
REMARK  166  A    between atoms: _418  and  _419
REMARK  167  A    between atoms: _418  and  _421
REMARK  168  A    between atoms: _421  and  _422
REMARK  169  A    between atoms: _425  and  _427
REMARK  170  A    between atoms: _427  and  _428
REMARK  171  A    between atoms: _427  and  _430
REMARK  172  A    between atoms: _430  and  _431
REMARK  173  A    between atoms: _436  and  _438
REMARK  174  A    between atoms: _438  and  _439
REMARK  175  A    between atoms: _441  and  _443
REMARK  176  A    between atoms: _443  and  _444
REMARK  177  A    between atoms: _443  and  _446
REMARK  178  A    between atoms: _446  and  _447
REMARK  179  A    between atoms: _447  and  _448
REMARK  180  A    between atoms: _448  and  _449
REMARK  181  A    between atoms: _449  and  _450
REMARK  182  A    between atoms: _454  and  _456
REMARK  183  A    between atoms: _456  and  _457
REMARK  184  A    between atoms: _456  and  _459
REMARK  185  A    between atoms: _459  and  _460
REMARK  186  A    between atoms: _460  and  _461
REMARK  187  A    between atoms: _461  and  _462
REMARK  188  A    between atoms: _471  and  _473
REMARK  189  A    between atoms: _473  and  _474
REMARK  190  A    between atoms: _473  and  _476
REMARK  191  A    between atoms: _476  and  _477
REMARK  192  A    between atoms: _482  and  _484
REMARK  193  A    between atoms: _484  and  _485
REMARK  194  A    between atoms: _484  and  _487
REMARK  195  A    between atoms: _487  and  _488
REMARK  196  A    between atoms: _493  and  _494
REMARK  197  A    between atoms: _496  and  _498
REMARK  198  A    between atoms: _498  and  _499
REMARK  199  A    between atoms: _498  and  _501
REMARK  200  A    between atoms: _501  and  _502
REMARK  201  A    between atoms: _502  and  _503
REMARK  202  A    between atoms: _503  and  _504
REMARK  203  A    between atoms: _504  and  _505
REMARK  204  A    between atoms: _509  and  _511
REMARK  205  A    between atoms: _511  and  _512
REMARK  206  A    between atoms: _511  and  _514
REMARK  207  A    between atoms: _514  and  _515
REMARK  208  A    between atoms: _517  and  _519
REMARK  209  A    between atoms: _519  and  _520
REMARK  210  A    between atoms: _519  and  _522
REMARK  211  A    between atoms: _522  and  _523
REMARK  212  A    between atoms: _526  and  _528
REMARK  213  A    between atoms: _528  and  _529
REMARK  214  A    between atoms: _528  and  _531
REMARK  215  A    between atoms: _531  and  _532
REMARK  216  A    between atoms: _532  and  _533
REMARK  217  A    between atoms: _536  and  _538
REMARK  218  A    between atoms: _538  and  _539
REMARK  219  A    between atoms: _542  and  _544
REMARK  220  A    between atoms: _544  and  _545
REMARK  221  A    between atoms: _544  and  _547
REMARK  222  A    between atoms: _547  and  _548
REMARK  223  A    between atoms: _550  and  _552
REMARK  224  A    between atoms: _552  and  _553
REMARK  225  A    between atoms: _555  and  _557
REMARK  226  A    between atoms: _557  and  _558
REMARK  227  A    between atoms: _557  and  _560
REMARK  228  A    between atoms: _560  and  _561
REMARK  229  A    between atoms: _564  and  _566
REMARK  230  A    between atoms: _566  and  _567
REMARK  231  A    between atoms: _569  and  _571
REMARK  232  A    between atoms: _571  and  _572
REMARK  233  A    between atoms: _571  and  _574
REMARK  234  A    between atoms: _574  and  _575
REMARK  235  A    between atoms: _580  and  _582
REMARK  236  A    between atoms: _582  and  _583
REMARK  237  A    between atoms: _582  and  _585
REMARK  238  A    between atoms: _585  and  _586
REMARK  239  A    between atoms: _586  and  _587
REMARK  240  A    between atoms: _594  and  _595
REMARK  241  A    between atoms: _595  and  _611
REMARK  242  A    between atoms: _596  and  _598
REMARK  243  A    between atoms: _598  and  _599
REMARK  244  A    between atoms: _599  and  _600
REMARK  245  A    between atoms: _604  and  _606
REMARK  246  A    between atoms: _606  and  _607
REMARK  247  A    between atoms: _606  and  _614
REMARK  248  A    between atoms: _607  and  _608
REMARK  249  A    between atoms: _608  and  _609
REMARK  250  A    between atoms: _609  and  _610
REMARK  251  A    between atoms: _610  and  _611
REMARK  252  A    between atoms: _616  and  _618
REMARK  253  A    between atoms: _618  and  _619
REMARK  254  A    between atoms: _618  and  _621
REMARK  255  A    between atoms: _621  and  _622
REMARK  256  A    between atoms: _625  and  _627
REMARK  257  A    between atoms: _627  and  _628
REMARK  258  A    between atoms: _630  and  _632
REMARK  259  A    between atoms: _632  and  _633
REMARK  260  A    between atoms: _636  and  _638
REMARK  261  A    between atoms: _638  and  _639
REMARK  262  A    between atoms: _638  and  _641
REMARK  263  A    between atoms: _641  and  _642
REMARK  264  A    between atoms: _647  and  _648
REMARK                            x       y       z     vdW  Elec       q    Type
REMARK                         _______ _______ _______ _____ _____    ______ ____
ROOT
ATOM      1  O   HOH     1      40.226  25.556  36.450  0.00  0.00    +0.000 OA
ENDROOT
TORSDOF 0
REMARK  Name = ../refined-set-2016/2qrq/2qrq_pocket.pdb
REMARK  264 active torsions:
REMARK  status: ('A' for Active; 'I' for Inactive)
REMARK    1  A    between atoms: _1  and  _3
REMARK    2  A    between atoms: _3  and  _4
REMARK    3  A    between atoms: _3  and  _6
REMARK    4  A    between atoms: _6  and  _7
REMARK    5  A    between atoms: _12  and  _13
REMARK    6  A    between atoms: _15  and  _17
REMARK    7  A    between atoms: _17  and  _18
REMARK    8  A    between atoms: _17  and  _20
REMARK    9  A    between atoms: _20  and  _21
REMARK   10  A    between atoms: _24  and  _26
REMARK   11  A    between atoms: _26  and  _27
REMARK   12  A    between atoms: _26  and  _29
REMARK   13  A    between atoms: _29  and  _30
REMARK   14  A    between atoms: _30  and  _31
REMARK   15  A    between atoms: _34  and  _36
REMARK   16  A    between atoms: _36  and  _37
REMARK   17  A    between atoms: _39  and  _41
REMARK   18  A    between atoms: _41  and  _42
REMARK   19  A    between atoms: _41  and  _44
REMARK   20  A    between atoms: _44  and  _45
REMARK   21  A    between atoms: _50  and  _52
REMARK   22  A    between atoms: _52  and  _53
REMARK   23  A    between atoms: _55  and  _57
REMARK   24  A    between atoms: _57  and  _58
REMARK   25  A    between atoms: _60  and  _62
REMARK   26  A    between atoms: _62  and  _63
REMARK   27  A    between atoms: _62  and  _65
REMARK   28  A    between atoms: _65  and  _66
REMARK   29  A    between atoms: _69  and  _71
REMARK   30  A    between atoms: _71  and  _72
REMARK   31  A    between atoms: _74  and  _76
REMARK   32  A    between atoms: _76  and  _77
REMARK   33  A    between atoms: _76  and  _79
REMARK   34  A    between atoms: _79  and  _80
REMARK   35  A    between atoms: _80  and  _81
REMARK   36  A    between atoms: _81  and  _82
REMARK   37  A    between atoms: _91  and  _93
REMARK   38  A    between atoms: _93  and  _94
REMARK   39  A    between atoms: _93  and  _96
REMARK   40  A    between atoms: _96  and  _97
REMARK   41  A    between atoms: _100  and  _102
REMARK   42  A    between atoms: _102  and  _103
REMARK   43  A    between atoms: _106  and  _108
REMARK   44  A    between atoms: _108  and  _109
REMARK   45  A    between atoms: _108  and  _111
REMARK   46  A    between atoms: _111  and  _112
REMARK   47  A    between atoms: _118  and  _120
REMARK   48  A    between atoms: _120  and  _121
REMARK   49  A    between atoms: _120  and  _123
REMARK   50  A    between atoms: _123  and  _124
REMARK   51  A    between atoms: _127  and  _129
REMARK   52  A    between atoms: _129  and  _130
REMARK   53  A    between atoms: _129  and  _132
REMARK   54  A    between atoms: _132  and  _133
REMARK   55  A    between atoms: _138  and  _139
REMARK   56  A    between atoms: _142  and  _143
REMARK   57  A    between atoms: _148  and  _150
REMARK   58  A    between atoms: _150  and  _151
REMARK   59  A    between atoms: _150  and  _153
REMARK   60  A    between atoms: _153  and  _154
REMARK   61  A    between atoms: _159  and  _161
REMARK   62  A    between atoms: _161  and  _162
REMARK   63  A    between atoms: _161  and  _164
REMARK   64  A    between atoms: _164  and  _165
REMARK   65  A    between atoms: _168  and  _170
REMARK   66  A    between atoms: _170  and  _171
REMARK   67  A    between atoms: _170  and  _173
REMARK   68  A    between atoms: _173  and  _174
REMARK   69  A    between atoms: _179  and  _181
REMARK   70  A    between atoms: _181  and  _182
REMARK   71  A    between atoms: _181  and  _184
REMARK   72  A    between atoms: _184  and  _185
REMARK   73  A    between atoms: _191  and  _193
REMARK   74  A    between atoms: _193  and  _194
REMARK   75  A    between atoms: _193  and  _196
REMARK   76  A    between atoms: _196  and  _197
REMARK   77  A    between atoms: _203  and  _205
REMARK   78  A    between atoms: _205  and  _206
REMARK   79  A    between atoms: _205  and  _208
REMARK   80  A    between atoms: _208  and  _209
REMARK   81  A    between atoms: _209  and  _210
REMARK   82  A    between atoms: _213  and  _215
REMARK   83  A    between atoms: _215  and  _216
REMARK   84  A    between atoms: _215  and  _218
REMARK   85  A    between atoms: _218  and  _219
REMARK   86  A    between atoms: _219  and  _220
REMARK   87  A    between atoms: _220  and  _221
REMARK   88  A    between atoms: _230  and  _232
REMARK   89  A    between atoms: _232  and  _233
REMARK   90  A    between atoms: _232  and  _235
REMARK   91  A    between atoms: _235  and  _236
REMARK   92  A    between atoms: _236  and  _237
REMARK   93  A    between atoms: _240  and  _242
REMARK   94  A    between atoms: _242  and  _243
REMARK   95  A    between atoms: _242  and  _245
REMARK   96  A    between atoms: _245  and  _246
REMARK   97  A    between atoms: _251  and  _253
REMARK   98  A    between atoms: _253  and  _254
REMARK   99  A    between atoms: _253  and  _256
REMARK  100  A    between atoms: _256  and  _257
REMARK  101  A    between atoms: _260  and  _262
REMARK  102  A    between atoms: _262  and  _263
REMARK  103  A    between atoms: _262  and  _265
REMARK  104  A    between atoms: _265  and  _266
REMARK  105  A    between atoms: _269  and  _271
REMARK  106  A    between atoms: _271  and  _272
REMARK  107  A    between atoms: _271  and  _274
REMARK  108  A    between atoms: _274  and  _275
REMARK  109  A    between atoms: _280  and  _282
REMARK  110  A    between atoms: _282  and  _283
REMARK  111  A    between atoms: _282  and  _285
REMARK  112  A    between atoms: _285  and  _286
REMARK  113  A    between atoms: _289  and  _291
REMARK  114  A    between atoms: _291  and  _292
REMARK  115  A    between atoms: _291  and  _294
REMARK  116  A    between atoms: _294  and  _295
REMARK  117  A    between atoms: _300  and  _302
REMARK  118  A    between atoms: _302  and  _303
REMARK  119  A    between atoms: _302  and  _305
REMARK  120  A    between atoms: _305  and  _306
REMARK  121  A    between atoms: _311  and  _313
REMARK  122  A    between atoms: _313  and  _314
REMARK  123  A    between atoms: _313  and  _316
REMARK  124  A    between atoms: _316  and  _317
REMARK  125  A    between atoms: _320  and  _322
REMARK  126  A    between atoms: _322  and  _323
REMARK  127  A    between atoms: _322  and  _325
REMARK  128  A    between atoms: _328  and  _330
REMARK  129  A    between atoms: _330  and  _331
REMARK  130  A    between atoms: _330  and  _333
REMARK  131  A    between atoms: _333  and  _334
REMARK  132  A    between atoms: _337  and  _339
REMARK  133  A    between atoms: _339  and  _340
REMARK  134  A    between atoms: _343  and  _345
REMARK  135  A    between atoms: _345  and  _346
REMARK  136  A    between atoms: _345  and  _348
REMARK  137  A    between atoms: _348  and  _349
REMARK  138  A    between atoms: _352  and  _354
REMARK  139  A    between atoms: _354  and  _355
REMARK  140  A    between atoms: _354  and  _357
REMARK  141  A    between atoms: _357  and  _358
REMARK  142  A    between atoms: _358  and  _359
REMARK  143  A    between atoms: _362  and  _364
REMARK  144  A    between atoms: _364  and  _365
REMARK  145  A    between atoms: _364  and  _367
REMARK  146  A    between atoms: _367  and  _368
REMARK  147  A    between atoms: _373  and  _375
REMARK  148  A    between atoms: _375  and  _376
REMARK  149  A    between atoms: _378  and  _380
REMARK  150  A    between atoms: _380  and  _381
REMARK  151  A    between atoms: _380  and  _383
REMARK  152  A    between atoms: _386  and  _388
REMARK  153  A    between atoms: _388  and  _389
REMARK  154  A    between atoms: _392  and  _394
REMARK  155  A    between atoms: _394  and  _395
REMARK  156  A    between atoms: _394  and  _397
REMARK  157  A    between atoms: _397  and  _398
REMARK  158  A    between atoms: _403  and  _405
REMARK  159  A    between atoms: _405  and  _406
REMARK  160  A    between atoms: _405  and  _408
REMARK  161  A    between atoms: _408  and  _409
REMARK  162  A    between atoms: _409  and  _410
REMARK  163  A    between atoms: _410  and  _411
REMARK  164  A    between atoms: _411  and  _412
REMARK  165  A    between atoms: _416  and  _418
REMARK  166  A    between atoms: _418  and  _419
REMARK  167  A    between atoms: _418  and  _421
REMARK  168  A    between atoms: _421  and  _422
REMARK  169  A    between atoms: _425  and  _427
REMARK  170  A    between atoms: _427  and  _428
REMARK  171  A    between atoms: _427  and  _430
REMARK  172  A    between atoms: _430  and  _431
REMARK  173  A    between atoms: _436  and  _438
REMARK  174  A    between atoms: _438  and  _439
REMARK  175  A    between atoms: _441  and  _443
REMARK  176  A    between atoms: _443  and  _444
REMARK  177  A    between atoms: _443  and  _446
REMARK  178  A    between atoms: _446  and  _447
REMARK  179  A    between atoms: _447  and  _448
REMARK  180  A    between atoms: _448  and  _449
REMARK  181  A    between atoms: _449  and  _450
REMARK  182  A    between atoms: _454  and  _456
REMARK  183  A    between atoms: _456  and  _457
REMARK  184  A    between atoms: _456  and  _459
REMARK  185  A    between atoms: _459  and  _460
REMARK  186  A    between atoms: _460  and  _461
REMARK  187  A    between atoms: _461  and  _462
REMARK  188  A    between atoms: _471  and  _473
REMARK  189  A    between atoms: _473  and  _474
REMARK  190  A    between atoms: _473  and  _476
REMARK  191  A    between atoms: _476  and  _477
REMARK  192  A    between atoms: _482  and  _484
REMARK  193  A    between atoms: _484  and  _485
REMARK  194  A    between atoms: _484  and  _487
REMARK  195  A    between atoms: _487  and  _488
REMARK  196  A    between atoms: _493  and  _494
REMARK  197  A    between atoms: _496  and  _498
REMARK  198  A    between atoms: _498  and  _499
REMARK  199  A    between atoms: _498  and  _501
REMARK  200  A    between atoms: _501  and  _502
REMARK  201  A    between atoms: _502  and  _503
REMARK  202  A    between atoms: _503  and  _504
REMARK  203  A    between atoms: _504  and  _505
REMARK  204  A    between atoms: _509  and  _511
REMARK  205  A    between atoms: _511  and  _512
REMARK  206  A    between atoms: _511  and  _514
REMARK  207  A    between atoms: _514  and  _515
REMARK  208  A    between atoms: _517  and  _519
REMARK  209  A    between atoms: _519  and  _520
REMARK  210  A    between atoms: _519  and  _522
REMARK  211  A    between atoms: _522  and  _523
REMARK  212  A    between atoms: _526  and  _528
REMARK  213  A    between atoms: _528  and  _529
REMARK  214  A    between atoms: _528  and  _531
REMARK  215  A    between atoms: _531  and  _532
REMARK  216  A    between atoms: _532  and  _533
REMARK  217  A    between atoms: _536  and  _538
REMARK  218  A    between atoms: _538  and  _539
REMARK  219  A    between atoms: _542  and  _544
REMARK  220  A    between atoms: _544  and  _545
REMARK  221  A    between atoms: _544  and  _547
REMARK  222  A    between atoms: _547  and  _548
REMARK  223  A    between atoms: _550  and  _552
REMARK  224  A    between atoms: _552  and  _553
REMARK  225  A    between atoms: _555  and  _557
REMARK  226  A    between atoms: _557  and  _558
REMARK  227  A    between atoms: _557  and  _560
REMARK  228  A    between atoms: _560  and  _561
REMARK  229  A    between atoms: _564  and  _566
REMARK  230  A    between atoms: _566  and  _567
REMARK  231  A    between atoms: _569  and  _571
REMARK  232  A    between atoms: _571  and  _572
REMARK  233  A    between atoms: _571  and  _574
REMARK  234  A    between atoms: _574  and  _575
REMARK  235  A    between atoms: _580  and  _582
REMARK  236  A    between atoms: _582  and  _583
REMARK  237  A    between atoms: _582  and  _585
REMARK  238  A    between atoms: _585  and  _586
REMARK  239  A    between atoms: _586  and  _587
REMARK  240  A    between atoms: _594  and  _595
REMARK  241  A    between atoms: _595  and  _611
REMARK  242  A    between atoms: _596  and  _598
REMARK  243  A    between atoms: _598  and  _599
REMARK  244  A    between atoms: _599  and  _600
REMARK  245  A    between atoms: _604  and  _606
REMARK  246  A    between atoms: _606  and  _607
REMARK  247  A    between atoms: _606  and  _614
REMARK  248  A    between atoms: _607  and  _608
REMARK  249  A    between atoms: _608  and  _609
REMARK  250  A    between atoms: _609  and  _610
REMARK  251  A    between atoms: _610  and  _611
REMARK  252  A    between atoms: _616  and  _618
REMARK  253  A    between atoms: _618  and  _619
REMARK  254  A    between atoms: _618  and  _621
REMARK  255  A    between atoms: _621  and  _622
REMARK  256  A    between atoms: _625  and  _627
REMARK  257  A    between atoms: _627  and  _628
REMARK  258  A    between atoms: _630  and  _632
REMARK  259  A    between atoms: _632  and  _633
REMARK  260  A    between atoms: _636  and  _638
REMARK  261  A    between atoms: _638  and  _639
REMARK  262  A    between atoms: _638  and  _641
REMARK  263  A    between atoms: _641  and  _642
REMARK  264  A    between atoms: _647  and  _648
REMARK                            x       y       z     vdW  Elec       q    Type
REMARK                         _______ _______ _______ _____ _____    ______ ____
ROOT
ATOM      1  O   HOH     1      40.210  29.319  37.080  0.00  0.00    +0.000 OA
ENDROOT
TORSDOF 0
REMARK  Name = ../refined-set-2016/2qrq/2qrq_pocket.pdb
REMARK  264 active torsions:
REMARK  status: ('A' for Active; 'I' for Inactive)
REMARK    1  A    between atoms: _1  and  _3
REMARK    2  A    between atoms: _3  and  _4
REMARK    3  A    between atoms: _3  and  _6
REMARK    4  A    between atoms: _6  and  _7
REMARK    5  A    between atoms: _12  and  _13
REMARK    6  A    between atoms: _15  and  _17
REMARK    7  A    between atoms: _17  and  _18
REMARK    8  A    between atoms: _17  and  _20
REMARK    9  A    between atoms: _20  and  _21
REMARK   10  A    between atoms: _24  and  _26
REMARK   11  A    between atoms: _26  and  _27
REMARK   12  A    between atoms: _26  and  _29
REMARK   13  A    between atoms: _29  and  _30
REMARK   14  A    between atoms: _30  and  _31
REMARK   15  A    between atoms: _34  and  _36
REMARK   16  A    between atoms: _36  and  _37
REMARK   17  A    between atoms: _39  and  _41
REMARK   18  A    between atoms: _41  and  _42
REMARK   19  A    between atoms: _41  and  _44
REMARK   20  A    between atoms: _44  and  _45
REMARK   21  A    between atoms: _50  and  _52
REMARK   22  A    between atoms: _52  and  _53
REMARK   23  A    between atoms: _55  and  _57
REMARK   24  A    between atoms: _57  and  _58
REMARK   25  A    between atoms: _60  and  _62
REMARK   26  A    between atoms: _62  and  _63
REMARK   27  A    between atoms: _62  and  _65
REMARK   28  A    between atoms: _65  and  _66
REMARK   29  A    between atoms: _69  and  _71
REMARK   30  A    between atoms: _71  and  _72
REMARK   31  A    between atoms: _74  and  _76
REMARK   32  A    between atoms: _76  and  _77
REMARK   33  A    between atoms: _76  and  _79
REMARK   34  A    between atoms: _79  and  _80
REMARK   35  A    between atoms: _80  and  _81
REMARK   36  A    between atoms: _81  and  _82
REMARK   37  A    between atoms: _91  and  _93
REMARK   38  A    between atoms: _93  and  _94
REMARK   39  A    between atoms: _93  and  _96
REMARK   40  A    between atoms: _96  and  _97
REMARK   41  A    between atoms: _100  and  _102
REMARK   42  A    between atoms: _102  and  _103
REMARK   43  A    between atoms: _106  and  _108
REMARK   44  A    between atoms: _108  and  _109
REMARK   45  A    between atoms: _108  and  _111
REMARK   46  A    between atoms: _111  and  _112
REMARK   47  A    between atoms: _118  and  _120
REMARK   48  A    between atoms: _120  and  _121
REMARK   49  A    between atoms: _120  and  _123
REMARK   50  A    between atoms: _123  and  _124
REMARK   51  A    between atoms: _127  and  _129
REMARK   52  A    between atoms: _129  and  _130
REMARK   53  A    between atoms: _129  and  _132
REMARK   54  A    between atoms: _132  and  _133
REMARK   55  A    between atoms: _138  and  _139
REMARK   56  A    between atoms: _142  and  _143
REMARK   57  A    between atoms: _148  and  _150
REMARK   58  A    between atoms: _150  and  _151
REMARK   59  A    between atoms: _150  and  _153
REMARK   60  A    between atoms: _153  and  _154
REMARK   61  A    between atoms: _159  and  _161
REMARK   62  A    between atoms: _161  and  _162
REMARK   63  A    between atoms: _161  and  _164
REMARK   64  A    between atoms: _164  and  _165
REMARK   65  A    between atoms: _168  and  _170
REMARK   66  A    between atoms: _170  and  _171
REMARK   67  A    between atoms: _170  and  _173
REMARK   68  A    between atoms: _173  and  _174
REMARK   69  A    between atoms: _179  and  _181
REMARK   70  A    between atoms: _181  and  _182
REMARK   71  A    between atoms: _181  and  _184
REMARK   72  A    between atoms: _184  and  _185
REMARK   73  A    between atoms: _191  and  _193
REMARK   74  A    between atoms: _193  and  _194
REMARK   75  A    between atoms: _193  and  _196
REMARK   76  A    between atoms: _196  and  _197
REMARK   77  A    between atoms: _203  and  _205
REMARK   78  A    between atoms: _205  and  _206
REMARK   79  A    between atoms: _205  and  _208
REMARK   80  A    between atoms: _208  and  _209
REMARK   81  A    between atoms: _209  and  _210
REMARK   82  A    between atoms: _213  and  _215
REMARK   83  A    between atoms: _215  and  _216
REMARK   84  A    between atoms: _215  and  _218
REMARK   85  A    between atoms: _218  and  _219
REMARK   86  A    between atoms: _219  and  _220
REMARK   87  A    between atoms: _220  and  _221
REMARK   88  A    between atoms: _230  and  _232
REMARK   89  A    between atoms: _232  and  _233
REMARK   90  A    between atoms: _232  and  _235
REMARK   91  A    between atoms: _235  and  _236
REMARK   92  A    between atoms: _236  and  _237
REMARK   93  A    between atoms: _240  and  _242
REMARK   94  A    between atoms: _242  and  _243
REMARK   95  A    between atoms: _242  and  _245
REMARK   96  A    between atoms: _245  and  _246
REMARK   97  A    between atoms: _251  and  _253
REMARK   98  A    between atoms: _253  and  _254
REMARK   99  A    between atoms: _253  and  _256
REMARK  100  A    between atoms: _256  and  _257
REMARK  101  A    between atoms: _260  and  _262
REMARK  102  A    between atoms: _262  and  _263
REMARK  103  A    between atoms: _262  and  _265
REMARK  104  A    between atoms: _265  and  _266
REMARK  105  A    between atoms: _269  and  _271
REMARK  106  A    between atoms: _271  and  _272
REMARK  107  A    between atoms: _271  and  _274
REMARK  108  A    between atoms: _274  and  _275
REMARK  109  A    between atoms: _280  and  _282
REMARK  110  A    between atoms: _282  and  _283
REMARK  111  A    between atoms: _282  and  _285
REMARK  112  A    between atoms: _285  and  _286
REMARK  113  A    between atoms: _289  and  _291
REMARK  114  A    between atoms: _291  and  _292
REMARK  115  A    between atoms: _291  and  _294
REMARK  116  A    between atoms: _294  and  _295
REMARK  117  A    between atoms: _300  and  _302
REMARK  118  A    between atoms: _302  and  _303
REMARK  119  A    between atoms: _302  and  _305
REMARK  120  A    between atoms: _305  and  _306
REMARK  121  A    between atoms: _311  and  _313
REMARK  122  A    between atoms: _313  and  _314
REMARK  123  A    between atoms: _313  and  _316
REMARK  124  A    between atoms: _316  and  _317
REMARK  125  A    between atoms: _320  and  _322
REMARK  126  A    between atoms: _322  and  _323
REMARK  127  A    between atoms: _322  and  _325
REMARK  128  A    between atoms: _328  and  _330
REMARK  129  A    between atoms: _330  and  _331
REMARK  130  A    between atoms: _330  and  _333
REMARK  131  A    between atoms: _333  and  _334
REMARK  132  A    between atoms: _337  and  _339
REMARK  133  A    between atoms: _339  and  _340
REMARK  134  A    between atoms: _343  and  _345
REMARK  135  A    between atoms: _345  and  _346
REMARK  136  A    between atoms: _345  and  _348
REMARK  137  A    between atoms: _348  and  _349
REMARK  138  A    between atoms: _352  and  _354
REMARK  139  A    between atoms: _354  and  _355
REMARK  140  A    between atoms: _354  and  _357
REMARK  141  A    between atoms: _357  and  _358
REMARK  142  A    between atoms: _358  and  _359
REMARK  143  A    between atoms: _362  and  _364
REMARK  144  A    between atoms: _364  and  _365
REMARK  145  A    between atoms: _364  and  _367
REMARK  146  A    between atoms: _367  and  _368
REMARK  147  A    between atoms: _373  and  _375
REMARK  148  A    between atoms: _375  and  _376
REMARK  149  A    between atoms: _378  and  _380
REMARK  150  A    between atoms: _380  and  _381
REMARK  151  A    between atoms: _380  and  _383
REMARK  152  A    between atoms: _386  and  _388
REMARK  153  A    between atoms: _388  and  _389
REMARK  154  A    between atoms: _392  and  _394
REMARK  155  A    between atoms: _394  and  _395
REMARK  156  A    between atoms: _394  and  _397
REMARK  157  A    between atoms: _397  and  _398
REMARK  158  A    between atoms: _403  and  _405
REMARK  159  A    between atoms: _405  and  _406
REMARK  160  A    between atoms: _405  and  _408
REMARK  161  A    between atoms: _408  and  _409
REMARK  162  A    between atoms: _409  and  _410
REMARK  163  A    between atoms: _410  and  _411
REMARK  164  A    between atoms: _411  and  _412
REMARK  165  A    between atoms: _416  and  _418
REMARK  166  A    between atoms: _418  and  _419
REMARK  167  A    between atoms: _418  and  _421
REMARK  168  A    between atoms: _421  and  _422
REMARK  169  A    between atoms: _425  and  _427
REMARK  170  A    between atoms: _427  and  _428
REMARK  171  A    between atoms: _427  and  _430
REMARK  172  A    between atoms: _430  and  _431
REMARK  173  A    between atoms: _436  and  _438
REMARK  174  A    between atoms: _438  and  _439
REMARK  175  A    between atoms: _441  and  _443
REMARK  176  A    between atoms: _443  and  _444
REMARK  177  A    between atoms: _443  and  _446
REMARK  178  A    between atoms: _446  and  _447
REMARK  179  A    between atoms: _447  and  _448
REMARK  180  A    between atoms: _448  and  _449
REMARK  181  A    between atoms: _449  and  _450
REMARK  182  A    between atoms: _454  and  _456
REMARK  183  A    between atoms: _456  and  _457
REMARK  184  A    between atoms: _456  and  _459
REMARK  185  A    between atoms: _459  and  _460
REMARK  186  A    between atoms: _460  and  _461
REMARK  187  A    between atoms: _461  and  _462
REMARK  188  A    between atoms: _471  and  _473
REMARK  189  A    between atoms: _473  and  _474
REMARK  190  A    between atoms: _473  and  _476
REMARK  191  A    between atoms: _476  and  _477
REMARK  192  A    between atoms: _482  and  _484
REMARK  193  A    between atoms: _484  and  _485
REMARK  194  A    between atoms: _484  and  _487
REMARK  195  A    between atoms: _487  and  _488
REMARK  196  A    between atoms: _493  and  _494
REMARK  197  A    between atoms: _496  and  _498
REMARK  198  A    between atoms: _498  and  _499
REMARK  199  A    between atoms: _498  and  _501
REMARK  200  A    between atoms: _501  and  _502
REMARK  201  A    between atoms: _502  and  _503
REMARK  202  A    between atoms: _503  and  _504
REMARK  203  A    between atoms: _504  and  _505
REMARK  204  A    between atoms: _509  and  _511
REMARK  205  A    between atoms: _511  and  _512
REMARK  206  A    between atoms: _511  and  _514
REMARK  207  A    between atoms: _514  and  _515
REMARK  208  A    between atoms: _517  and  _519
REMARK  209  A    between atoms: _519  and  _520
REMARK  210  A    between atoms: _519  and  _522
REMARK  211  A    between atoms: _522  and  _523
REMARK  212  A    between atoms: _526  and  _528
REMARK  213  A    between atoms: _528  and  _529
REMARK  214  A    between atoms: _528  and  _531
REMARK  215  A    between atoms: _531  and  _532
REMARK  216  A    between atoms: _532  and  _533
REMARK  217  A    between atoms: _536  and  _538
REMARK  218  A    between atoms: _538  and  _539
REMARK  219  A    between atoms: _542  and  _544
REMARK  220  A    between atoms: _544  and  _545
REMARK  221  A    between atoms: _544  and  _547
REMARK  222  A    between atoms: _547  and  _548
REMARK  223  A    between atoms: _550  and  _552
REMARK  224  A    between atoms: _552  and  _553
REMARK  225  A    between atoms: _555  and  _557
REMARK  226  A    between atoms: _557  and  _558
REMARK  227  A    between atoms: _557  and  _560
REMARK  228  A    between atoms: _560  and  _561
REMARK  229  A    between atoms: _564  and  _566
REMARK  230  A    between atoms: _566  and  _567
REMARK  231  A    between atoms: _569  and  _571
REMARK  232  A    between atoms: _571  and  _572
REMARK  233  A    between atoms: _571  and  _574
REMARK  234  A    between atoms: _574  and  _575
REMARK  235  A    between atoms: _580  and  _582
REMARK  236  A    between atoms: _582  and  _583
REMARK  237  A    between atoms: _582  and  _585
REMARK  238  A    between atoms: _585  and  _586
REMARK  239  A    between atoms: _586  and  _587
REMARK  240  A    between atoms: _594  and  _595
REMARK  241  A    between atoms: _595  and  _611
REMARK  242  A    between atoms: _596  and  _598
REMARK  243  A    between atoms: _598  and  _599
REMARK  244  A    between atoms: _599  and  _600
REMARK  245  A    between atoms: _604  and  _606
REMARK  246  A    between atoms: _606  and  _607
REMARK  247  A    between atoms: _606  and  _614
REMARK  248  A    between atoms: _607  and  _608
REMARK  249  A    between atoms: _608  and  _609
REMARK  250  A    between atoms: _609  and  _610
REMARK  251  A    between atoms: _610  and  _611
REMARK  252  A    between atoms: _616  and  _618
REMARK  253  A    between atoms: _618  and  _619
REMARK  254  A    between atoms: _618  and  _621
REMARK  255  A    between atoms: _621  and  _622
REMARK  256  A    between atoms: _625  and  _627
REMARK  257  A    between atoms: _627  and  _628
REMARK  258  A    between atoms: _630  and  _632
REMARK  259  A    between atoms: _632  and  _633
REMARK  260  A    between atoms: _636  and  _638
REMARK  261  A    between atoms: _638  and  _639
REMARK  262  A    between atoms: _638  and  _641
REMARK  263  A    between atoms: _641  and  _642
REMARK  264  A    between atoms: _647  and  _648
REMARK                            x       y       z     vdW  Elec       q    Type
REMARK                         _______ _______ _______ _____ _____    ______ ____
ROOT
ATOM      1  O   HOH     1      40.181  24.102  32.320  0.00  0.00    +0.000 OA
ENDROOT
TORSDOF 0
REMARK  Name = ../refined-set-2016/2qrq/2qrq_pocket.pdb
REMARK  264 active torsions:
REMARK  status: ('A' for Active; 'I' for Inactive)
REMARK    1  A    between atoms: _1  and  _3
REMARK    2  A    between atoms: _3  and  _4
REMARK    3  A    between atoms: _3  and  _6
REMARK    4  A    between atoms: _6  and  _7
REMARK    5  A    between atoms: _12  and  _13
REMARK    6  A    between atoms: _15  and  _17
REMARK    7  A    between atoms: _17  and  _18
REMARK    8  A    between atoms: _17  and  _20
REMARK    9  A    between atoms: _20  and  _21
REMARK   10  A    between atoms: _24  and  _26
REMARK   11  A    between atoms: _26  and  _27
REMARK   12  A    between atoms: _26  and  _29
REMARK   13  A    between atoms: _29  and  _30
REMARK   14  A    between atoms: _30  and  _31
REMARK   15  A    between atoms: _34  and  _36
REMARK   16  A    between atoms: _36  and  _37
REMARK   17  A    between atoms: _39  and  _41
REMARK   18  A    between atoms: _41  and  _42
REMARK   19  A    between atoms: _41  and  _44
REMARK   20  A    between atoms: _44  and  _45
REMARK   21  A    between atoms: _50  and  _52
REMARK   22  A    between atoms: _52  and  _53
REMARK   23  A    between atoms: _55  and  _57
REMARK   24  A    between atoms: _57  and  _58
REMARK   25  A    between atoms: _60  and  _62
REMARK   26  A    between atoms: _62  and  _63
REMARK   27  A    between atoms: _62  and  _65
REMARK   28  A    between atoms: _65  and  _66
REMARK   29  A    between atoms: _69  and  _71
REMARK   30  A    between atoms: _71  and  _72
REMARK   31  A    between atoms: _74  and  _76
REMARK   32  A    between atoms: _76  and  _77
REMARK   33  A    between atoms: _76  and  _79
REMARK   34  A    between atoms: _79  and  _80
REMARK   35  A    between atoms: _80  and  _81
REMARK   36  A    between atoms: _81  and  _82
REMARK   37  A    between atoms: _91  and  _93
REMARK   38  A    between atoms: _93  and  _94
REMARK   39  A    between atoms: _93  and  _96
REMARK   40  A    between atoms: _96  and  _97
REMARK   41  A    between atoms: _100  and  _102
REMARK   42  A    between atoms: _102  and  _103
REMARK   43  A    between atoms: _106  and  _108
REMARK   44  A    between atoms: _108  and  _109
REMARK   45  A    between atoms: _108  and  _111
REMARK   46  A    between atoms: _111  and  _112
REMARK   47  A    between atoms: _118  and  _120
REMARK   48  A    between atoms: _120  and  _121
REMARK   49  A    between atoms: _120  and  _123
REMARK   50  A    between atoms: _123  and  _124
REMARK   51  A    between atoms: _127  and  _129
REMARK   52  A    between atoms: _129  and  _130
REMARK   53  A    between atoms: _129  and  _132
REMARK   54  A    between atoms: _132  and  _133
REMARK   55  A    between atoms: _138  and  _139
REMARK   56  A    between atoms: _142  and  _143
REMARK   57  A    between atoms: _148  and  _150
REMARK   58  A    between atoms: _150  and  _151
REMARK   59  A    between atoms: _150  and  _153
REMARK   60  A    between atoms: _153  and  _154
REMARK   61  A    between atoms: _159  and  _161
REMARK   62  A    between atoms: _161  and  _162
REMARK   63  A    between atoms: _161  and  _164
REMARK   64  A    between atoms: _164  and  _165
REMARK   65  A    between atoms: _168  and  _170
REMARK   66  A    between atoms: _170  and  _171
REMARK   67  A    between atoms: _170  and  _173
REMARK   68  A    between atoms: _173  and  _174
REMARK   69  A    between atoms: _179  and  _181
REMARK   70  A    between atoms: _181  and  _182
REMARK   71  A    between atoms: _181  and  _184
REMARK   72  A    between atoms: _184  and  _185
REMARK   73  A    between atoms: _191  and  _193
REMARK   74  A    between atoms: _193  and  _194
REMARK   75  A    between atoms: _193  and  _196
REMARK   76  A    between atoms: _196  and  _197
REMARK   77  A    between atoms: _203  and  _205
REMARK   78  A    between atoms: _205  and  _206
REMARK   79  A    between atoms: _205  and  _208
REMARK   80  A    between atoms: _208  and  _209
REMARK   81  A    between atoms: _209  and  _210
REMARK   82  A    between atoms: _213  and  _215
REMARK   83  A    between atoms: _215  and  _216
REMARK   84  A    between atoms: _215  and  _218
REMARK   85  A    between atoms: _218  and  _219
REMARK   86  A    between atoms: _219  and  _220
REMARK   87  A    between atoms: _220  and  _221
REMARK   88  A    between atoms: _230  and  _232
REMARK   89  A    between atoms: _232  and  _233
REMARK   90  A    between atoms: _232  and  _235
REMARK   91  A    between atoms: _235  and  _236
REMARK   92  A    between atoms: _236  and  _237
REMARK   93  A    between atoms: _240  and  _242
REMARK   94  A    between atoms: _242  and  _243
REMARK   95  A    between atoms: _242  and  _245
REMARK   96  A    between atoms: _245  and  _246
REMARK   97  A    between atoms: _251  and  _253
REMARK   98  A    between atoms: _253  and  _254
REMARK   99  A    between atoms: _253  and  _256
REMARK  100  A    between atoms: _256  and  _257
REMARK  101  A    between atoms: _260  and  _262
REMARK  102  A    between atoms: _262  and  _263
REMARK  103  A    between atoms: _262  and  _265
REMARK  104  A    between atoms: _265  and  _266
REMARK  105  A    between atoms: _269  and  _271
REMARK  106  A    between atoms: _271  and  _272
REMARK  107  A    between atoms: _271  and  _274
REMARK  108  A    between atoms: _274  and  _275
REMARK  109  A    between atoms: _280  and  _282
REMARK  110  A    between atoms: _282  and  _283
REMARK  111  A    between atoms: _282  and  _285
REMARK  112  A    between atoms: _285  and  _286
REMARK  113  A    between atoms: _289  and  _291
REMARK  114  A    between atoms: _291  and  _292
REMARK  115  A    between atoms: _291  and  _294
REMARK  116  A    between atoms: _294  and  _295
REMARK  117  A    between atoms: _300  and  _302
REMARK  118  A    between atoms: _302  and  _303
REMARK  119  A    between atoms: _302  and  _305
REMARK  120  A    between atoms: _305  and  _306
REMARK  121  A    between atoms: _311  and  _313
REMARK  122  A    between atoms: _313  and  _314
REMARK  123  A    between atoms: _313  and  _316
REMARK  124  A    between atoms: _316  and  _317
REMARK  125  A    between atoms: _320  and  _322
REMARK  126  A    between atoms: _322  and  _323
REMARK  127  A    between atoms: _322  and  _325
REMARK  128  A    between atoms: _328  and  _330
REMARK  129  A    between atoms: _330  and  _331
REMARK  130  A    between atoms: _330  and  _333
REMARK  131  A    between atoms: _333  and  _334
REMARK  132  A    between atoms: _337  and  _339
REMARK  133  A    between atoms: _339  and  _340
REMARK  134  A    between atoms: _343  and  _345
REMARK  135  A    between atoms: _345  and  _346
REMARK  136  A    between atoms: _345  and  _348
REMARK  137  A    between atoms: _348  and  _349
REMARK  138  A    between atoms: _352  and  _354
REMARK  139  A    between atoms: _354  and  _355
REMARK  140  A    between atoms: _354  and  _357
REMARK  141  A    between atoms: _357  and  _358
REMARK  142  A    between atoms: _358  and  _359
REMARK  143  A    between atoms: _362  and  _364
REMARK  144  A    between atoms: _364  and  _365
REMARK  145  A    between atoms: _364  and  _367
REMARK  146  A    between atoms: _367  and  _368
REMARK  147  A    between atoms: _373  and  _375
REMARK  148  A    between atoms: _375  and  _376
REMARK  149  A    between atoms: _378  and  _380
REMARK  150  A    between atoms: _380  and  _381
REMARK  151  A    between atoms: _380  and  _383
REMARK  152  A    between atoms: _386  and  _388
REMARK  153  A    between atoms: _388  and  _389
REMARK  154  A    between atoms: _392  and  _394
REMARK  155  A    between atoms: _394  and  _395
REMARK  156  A    between atoms: _394  and  _397
REMARK  157  A    between atoms: _397  and  _398
REMARK  158  A    between atoms: _403  and  _405
REMARK  159  A    between atoms: _405  and  _406
REMARK  160  A    between atoms: _405  and  _408
REMARK  161  A    between atoms: _408  and  _409
REMARK  162  A    between atoms: _409  and  _410
REMARK  163  A    between atoms: _410  and  _411
REMARK  164  A    between atoms: _411  and  _412
REMARK  165  A    between atoms: _416  and  _418
REMARK  166  A    between atoms: _418  and  _419
REMARK  167  A    between atoms: _418  and  _421
REMARK  168  A    between atoms: _421  and  _422
REMARK  169  A    between atoms: _425  and  _427
REMARK  170  A    between atoms: _427  and  _428
REMARK  171  A    between atoms: _427  and  _430
REMARK  172  A    between atoms: _430  and  _431
REMARK  173  A    between atoms: _436  and  _438
REMARK  174  A    between atoms: _438  and  _439
REMARK  175  A    between atoms: _441  and  _443
REMARK  176  A    between atoms: _443  and  _444
REMARK  177  A    between atoms: _443  and  _446
REMARK  178  A    between atoms: _446  and  _447
REMARK  179  A    between atoms: _447  and  _448
REMARK  180  A    between atoms: _448  and  _449
REMARK  181  A    between atoms: _449  and  _450
REMARK  182  A    between atoms: _454  and  _456
REMARK  183  A    between atoms: _456  and  _457
REMARK  184  A    between atoms: _456  and  _459
REMARK  185  A    between atoms: _459  and  _460
REMARK  186  A    between atoms: _460  and  _461
REMARK  187  A    between atoms: _461  and  _462
REMARK  188  A    between atoms: _471  and  _473
REMARK  189  A    between atoms: _473  and  _474
REMARK  190  A    between atoms: _473  and  _476
REMARK  191  A    between atoms: _476  and  _477
REMARK  192  A    between atoms: _482  and  _484
REMARK  193  A    between atoms: _484  and  _485
REMARK  194  A    between atoms: _484  and  _487
REMARK  195  A    between atoms: _487  and  _488
REMARK  196  A    between atoms: _493  and  _494
REMARK  197  A    between atoms: _496  and  _498
REMARK  198  A    between atoms: _498  and  _499
REMARK  199  A    between atoms: _498  and  _501
REMARK  200  A    between atoms: _501  and  _502
REMARK  201  A    between atoms: _502  and  _503
REMARK  202  A    between atoms: _503  and  _504
REMARK  203  A    between atoms: _504  and  _505
REMARK  204  A    between atoms: _509  and  _511
REMARK  205  A    between atoms: _511  and  _512
REMARK  206  A    between atoms: _511  and  _514
REMARK  207  A    between atoms: _514  and  _515
REMARK  208  A    between atoms: _517  and  _519
REMARK  209  A    between atoms: _519  and  _520
REMARK  210  A    between atoms: _519  and  _522
REMARK  211  A    between atoms: _522  and  _523
REMARK  212  A    between atoms: _526  and  _528
REMARK  213  A    between atoms: _528  and  _529
REMARK  214  A    between atoms: _528  and  _531
REMARK  215  A    between atoms: _531  and  _532
REMARK  216  A    between atoms: _532  and  _533
REMARK  217  A    between atoms: _536  and  _538
REMARK  218  A    between atoms: _538  and  _539
REMARK  219  A    between atoms: _542  and  _544
REMARK  220  A    between atoms: _544  and  _545
REMARK  221  A    between atoms: _544  and  _547
REMARK  222  A    between atoms: _547  and  _548
REMARK  223  A    between atoms: _550  and  _552
REMARK  224  A    between atoms: _552  and  _553
REMARK  225  A    between atoms: _555  and  _557
REMARK  226  A    between atoms: _557  and  _558
REMARK  227  A    between atoms: _557  and  _560
REMARK  228  A    between atoms: _560  and  _561
REMARK  229  A    between atoms: _564  and  _566
REMARK  230  A    between atoms: _566  and  _567
REMARK  231  A    between atoms: _569  and  _571
REMARK  232  A    between atoms: _571  and  _572
REMARK  233  A    between atoms: _571  and  _574
REMARK  234  A    between atoms: _574  and  _575
REMARK  235  A    between atoms: _580  and  _582
REMARK  236  A    between atoms: _582  and  _583
REMARK  237  A    between atoms: _582  and  _585
REMARK  238  A    between atoms: _585  and  _586
REMARK  239  A    between atoms: _586  and  _587
REMARK  240  A    between atoms: _594  and  _595
REMARK  241  A    between atoms: _595  and  _611
REMARK  242  A    between atoms: _596  and  _598
REMARK  243  A    between atoms: _598  and  _599
REMARK  244  A    between atoms: _599  and  _600
REMARK  245  A    between atoms: _604  and  _606
REMARK  246  A    between atoms: _606  and  _607
REMARK  247  A    between atoms: _606  and  _614
REMARK  248  A    between atoms: _607  and  _608
REMARK  249  A    between atoms: _608  and  _609
REMARK  250  A    between atoms: _609  and  _610
REMARK  251  A    between atoms: _610  and  _611
REMARK  252  A    between atoms: _616  and  _618
REMARK  253  A    between atoms: _618  and  _619
REMARK  254  A    between atoms: _618  and  _621
REMARK  255  A    between atoms: _621  and  _622
REMARK  256  A    between atoms: _625  and  _627
REMARK  257  A    between atoms: _627  and  _628
REMARK  258  A    between atoms: _630  and  _632
REMARK  259  A    between atoms: _632  and  _633
REMARK  260  A    between atoms: _636  and  _638
REMARK  261  A    between atoms: _638  and  _639
REMARK  262  A    between atoms: _638  and  _641
REMARK  263  A    between atoms: _641  and  _642
REMARK  264  A    between atoms: _647  and  _648
REMARK                            x       y       z     vdW  Elec       q    Type
REMARK                         _______ _______ _______ _____ _____    ______ ____
ROOT
ATOM      1  O   HOH     1      35.500  27.681  36.858  0.00  0.00    +0.000 OA
ENDROOT
TORSDOF 0
REMARK  Name = ../refined-set-2016/2qrq/2qrq_pocket.pdb
REMARK  264 active torsions:
REMARK  status: ('A' for Active; 'I' for Inactive)
REMARK    1  A    between atoms: _1  and  _3
REMARK    2  A    between atoms: _3  and  _4
REMARK    3  A    between atoms: _3  and  _6
REMARK    4  A    between atoms: _6  and  _7
REMARK    5  A    between atoms: _12  and  _13
REMARK    6  A    between atoms: _15  and  _17
REMARK    7  A    between atoms: _17  and  _18
REMARK    8  A    between atoms: _17  and  _20
REMARK    9  A    between atoms: _20  and  _21
REMARK   10  A    between atoms: _24  and  _26
REMARK   11  A    between atoms: _26  and  _27
REMARK   12  A    between atoms: _26  and  _29
REMARK   13  A    between atoms: _29  and  _30
REMARK   14  A    between atoms: _30  and  _31
REMARK   15  A    between atoms: _34  and  _36
REMARK   16  A    between atoms: _36  and  _37
REMARK   17  A    between atoms: _39  and  _41
REMARK   18  A    between atoms: _41  and  _42
REMARK   19  A    between atoms: _41  and  _44
REMARK   20  A    between atoms: _44  and  _45
REMARK   21  A    between atoms: _50  and  _52
REMARK   22  A    between atoms: _52  and  _53
REMARK   23  A    between atoms: _55  and  _57
REMARK   24  A    between atoms: _57  and  _58
REMARK   25  A    between atoms: _60  and  _62
REMARK   26  A    between atoms: _62  and  _63
REMARK   27  A    between atoms: _62  and  _65
REMARK   28  A    between atoms: _65  and  _66
REMARK   29  A    between atoms: _69  and  _71
REMARK   30  A    between atoms: _71  and  _72
REMARK   31  A    between atoms: _74  and  _76
REMARK   32  A    between atoms: _76  and  _77
REMARK   33  A    between atoms: _76  and  _79
REMARK   34  A    between atoms: _79  and  _80
REMARK   35  A    between atoms: _80  and  _81
REMARK   36  A    between atoms: _81  and  _82
REMARK   37  A    between atoms: _91  and  _93
REMARK   38  A    between atoms: _93  and  _94
REMARK   39  A    between atoms: _93  and  _96
REMARK   40  A    between atoms: _96  and  _97
REMARK   41  A    between atoms: _100  and  _102
REMARK   42  A    between atoms: _102  and  _103
REMARK   43  A    between atoms: _106  and  _108
REMARK   44  A    between atoms: _108  and  _109
REMARK   45  A    between atoms: _108  and  _111
REMARK   46  A    between atoms: _111  and  _112
REMARK   47  A    between atoms: _118  and  _120
REMARK   48  A    between atoms: _120  and  _121
REMARK   49  A    between atoms: _120  and  _123
REMARK   50  A    between atoms: _123  and  _124
REMARK   51  A    between atoms: _127  and  _129
REMARK   52  A    between atoms: _129  and  _130
REMARK   53  A    between atoms: _129  and  _132
REMARK   54  A    between atoms: _132  and  _133
REMARK   55  A    between atoms: _138  and  _139
REMARK   56  A    between atoms: _142  and  _143
REMARK   57  A    between atoms: _148  and  _150
REMARK   58  A    between atoms: _150  and  _151
REMARK   59  A    between atoms: _150  and  _153
REMARK   60  A    between atoms: _153  and  _154
REMARK   61  A    between atoms: _159  and  _161
REMARK   62  A    between atoms: _161  and  _162
REMARK   63  A    between atoms: _161  and  _164
REMARK   64  A    between atoms: _164  and  _165
REMARK   65  A    between atoms: _168  and  _170
REMARK   66  A    between atoms: _170  and  _171
REMARK   67  A    between atoms: _170  and  _173
REMARK   68  A    between atoms: _173  and  _174
REMARK   69  A    between atoms: _179  and  _181
REMARK   70  A    between atoms: _181  and  _182
REMARK   71  A    between atoms: _181  and  _184
REMARK   72  A    between atoms: _184  and  _185
REMARK   73  A    between atoms: _191  and  _193
REMARK   74  A    between atoms: _193  and  _194
REMARK   75  A    between atoms: _193  and  _196
REMARK   76  A    between atoms: _196  and  _197
REMARK   77  A    between atoms: _203  and  _205
REMARK   78  A    between atoms: _205  and  _206
REMARK   79  A    between atoms: _205  and  _208
REMARK   80  A    between atoms: _208  and  _209
REMARK   81  A    between atoms: _209  and  _210
REMARK   82  A    between atoms: _213  and  _215
REMARK   83  A    between atoms: _215  and  _216
REMARK   84  A    between atoms: _215  and  _218
REMARK   85  A    between atoms: _218  and  _219
REMARK   86  A    between atoms: _219  and  _220
REMARK   87  A    between atoms: _220  and  _221
REMARK   88  A    between atoms: _230  and  _232
REMARK   89  A    between atoms: _232  and  _233
REMARK   90  A    between atoms: _232  and  _235
REMARK   91  A    between atoms: _235  and  _236
REMARK   92  A    between atoms: _236  and  _237
REMARK   93  A    between atoms: _240  and  _242
REMARK   94  A    between atoms: _242  and  _243
REMARK   95  A    between atoms: _242  and  _245
REMARK   96  A    between atoms: _245  and  _246
REMARK   97  A    between atoms: _251  and  _253
REMARK   98  A    between atoms: _253  and  _254
REMARK   99  A    between atoms: _253  and  _256
REMARK  100  A    between atoms: _256  and  _257
REMARK  101  A    between atoms: _260  and  _262
REMARK  102  A    between atoms: _262  and  _263
REMARK  103  A    between atoms: _262  and  _265
REMARK  104  A    between atoms: _265  and  _266
REMARK  105  A    between atoms: _269  and  _271
REMARK  106  A    between atoms: _271  and  _272
REMARK  107  A    between atoms: _271  and  _274
REMARK  108  A    between atoms: _274  and  _275
REMARK  109  A    between atoms: _280  and  _282
REMARK  110  A    between atoms: _282  and  _283
REMARK  111  A    between atoms: _282  and  _285
REMARK  112  A    between atoms: _285  and  _286
REMARK  113  A    between atoms: _289  and  _291
REMARK  114  A    between atoms: _291  and  _292
REMARK  115  A    between atoms: _291  and  _294
REMARK  116  A    between atoms: _294  and  _295
REMARK  117  A    between atoms: _300  and  _302
REMARK  118  A    between atoms: _302  and  _303
REMARK  119  A    between atoms: _302  and  _305
REMARK  120  A    between atoms: _305  and  _306
REMARK  121  A    between atoms: _311  and  _313
REMARK  122  A    between atoms: _313  and  _314
REMARK  123  A    between atoms: _313  and  _316
REMARK  124  A    between atoms: _316  and  _317
REMARK  125  A    between atoms: _320  and  _322
REMARK  126  A    between atoms: _322  and  _323
REMARK  127  A    between atoms: _322  and  _325
REMARK  128  A    between atoms: _328  and  _330
REMARK  129  A    between atoms: _330  and  _331
REMARK  130  A    between atoms: _330  and  _333
REMARK  131  A    between atoms: _333  and  _334
REMARK  132  A    between atoms: _337  and  _339
REMARK  133  A    between atoms: _339  and  _340
REMARK  134  A    between atoms: _343  and  _345
REMARK  135  A    between atoms: _345  and  _346
REMARK  136  A    between atoms: _345  and  _348
REMARK  137  A    between atoms: _348  and  _349
REMARK  138  A    between atoms: _352  and  _354
REMARK  139  A    between atoms: _354  and  _355
REMARK  140  A    between atoms: _354  and  _357
REMARK  141  A    between atoms: _357  and  _358
REMARK  142  A    between atoms: _358  and  _359
REMARK  143  A    between atoms: _362  and  _364
REMARK  144  A    between atoms: _364  and  _365
REMARK  145  A    between atoms: _364  and  _367
REMARK  146  A    between atoms: _367  and  _368
REMARK  147  A    between atoms: _373  and  _375
REMARK  148  A    between atoms: _375  and  _376
REMARK  149  A    between atoms: _378  and  _380
REMARK  150  A    between atoms: _380  and  _381
REMARK  151  A    between atoms: _380  and  _383
REMARK  152  A    between atoms: _386  and  _388
REMARK  153  A    between atoms: _388  and  _389
REMARK  154  A    between atoms: _392  and  _394
REMARK  155  A    between atoms: _394  and  _395
REMARK  156  A    between atoms: _394  and  _397
REMARK  157  A    between atoms: _397  and  _398
REMARK  158  A    between atoms: _403  and  _405
REMARK  159  A    between atoms: _405  and  _406
REMARK  160  A    between atoms: _405  and  _408
REMARK  161  A    between atoms: _408  and  _409
REMARK  162  A    between atoms: _409  and  _410
REMARK  163  A    between atoms: _410  and  _411
REMARK  164  A    between atoms: _411  and  _412
REMARK  165  A    between atoms: _416  and  _418
REMARK  166  A    between atoms: _418  and  _419
REMARK  167  A    between atoms: _418  and  _421
REMARK  168  A    between atoms: _421  and  _422
REMARK  169  A    between atoms: _425  and  _427
REMARK  170  A    between atoms: _427  and  _428
REMARK  171  A    between atoms: _427  and  _430
REMARK  172  A    between atoms: _430  and  _431
REMARK  173  A    between atoms: _436  and  _438
REMARK  174  A    between atoms: _438  and  _439
REMARK  175  A    between atoms: _441  and  _443
REMARK  176  A    between atoms: _443  and  _444
REMARK  177  A    between atoms: _443  and  _446
REMARK  178  A    between atoms: _446  and  _447
REMARK  179  A    between atoms: _447  and  _448
REMARK  180  A    between atoms: _448  and  _449
REMARK  181  A    between atoms: _449  and  _450
REMARK  182  A    between atoms: _454  and  _456
REMARK  183  A    between atoms: _456  and  _457
REMARK  184  A    between atoms: _456  and  _459
REMARK  185  A    between atoms: _459  and  _460
REMARK  186  A    between atoms: _460  and  _461
REMARK  187  A    between atoms: _461  and  _462
REMARK  188  A    between atoms: _471  and  _473
REMARK  189  A    between atoms: _473  and  _474
REMARK  190  A    between atoms: _473  and  _476
REMARK  191  A    between atoms: _476  and  _477
REMARK  192  A    between atoms: _482  and  _484
REMARK  193  A    between atoms: _484  and  _485
REMARK  194  A    between atoms: _484  and  _487
REMARK  195  A    between atoms: _487  and  _488
REMARK  196  A    between atoms: _493  and  _494
REMARK  197  A    between atoms: _496  and  _498
REMARK  198  A    between atoms: _498  and  _499
REMARK  199  A    between atoms: _498  and  _501
REMARK  200  A    between atoms: _501  and  _502
REMARK  201  A    between atoms: _502  and  _503
REMARK  202  A    between atoms: _503  and  _504
REMARK  203  A    between atoms: _504  and  _505
REMARK  204  A    between atoms: _509  and  _511
REMARK  205  A    between atoms: _511  and  _512
REMARK  206  A    between atoms: _511  and  _514
REMARK  207  A    between atoms: _514  and  _515
REMARK  208  A    between atoms: _517  and  _519
REMARK  209  A    between atoms: _519  and  _520
REMARK  210  A    between atoms: _519  and  _522
REMARK  211  A    between atoms: _522  and  _523
REMARK  212  A    between atoms: _526  and  _528
REMARK  213  A    between atoms: _528  and  _529
REMARK  214  A    between atoms: _528  and  _531
REMARK  215  A    between atoms: _531  and  _532
REMARK  216  A    between atoms: _532  and  _533
REMARK  217  A    between atoms: _536  and  _538
REMARK  218  A    between atoms: _538  and  _539
REMARK  219  A    between atoms: _542  and  _544
REMARK  220  A    between atoms: _544  and  _545
REMARK  221  A    between atoms: _544  and  _547
REMARK  222  A    between atoms: _547  and  _548
REMARK  223  A    between atoms: _550  and  _552
REMARK  224  A    between atoms: _552  and  _553
REMARK  225  A    between atoms: _555  and  _557
REMARK  226  A    between atoms: _557  and  _558
REMARK  227  A    between atoms: _557  and  _560
REMARK  228  A    between atoms: _560  and  _561
REMARK  229  A    between atoms: _564  and  _566
REMARK  230  A    between atoms: _566  and  _567
REMARK  231  A    between atoms: _569  and  _571
REMARK  232  A    between atoms: _571  and  _572
REMARK  233  A    between atoms: _571  and  _574
REMARK  234  A    between atoms: _574  and  _575
REMARK  235  A    between atoms: _580  and  _582
REMARK  236  A    between atoms: _582  and  _583
REMARK  237  A    between atoms: _582  and  _585
REMARK  238  A    between atoms: _585  and  _586
REMARK  239  A    between atoms: _586  and  _587
REMARK  240  A    between atoms: _594  and  _595
REMARK  241  A    between atoms: _595  and  _611
REMARK  242  A    between atoms: _596  and  _598
REMARK  243  A    between atoms: _598  and  _599
REMARK  244  A    between atoms: _599  and  _600
REMARK  245  A    between atoms: _604  and  _606
REMARK  246  A    between atoms: _606  and  _607
REMARK  247  A    between atoms: _606  and  _614
REMARK  248  A    between atoms: _607  and  _608
REMARK  249  A    between atoms: _608  and  _609
REMARK  250  A    between atoms: _609  and  _610
REMARK  251  A    between atoms: _610  and  _611
REMARK  252  A    between atoms: _616  and  _618
REMARK  253  A    between atoms: _618  and  _619
REMARK  254  A    between atoms: _618  and  _621
REMARK  255  A    between atoms: _621  and  _622
REMARK  256  A    between atoms: _625  and  _627
REMARK  257  A    between atoms: _627  and  _628
REMARK  258  A    between atoms: _630  and  _632
REMARK  259  A    between atoms: _632  and  _633
REMARK  260  A    between atoms: _636  and  _638
REMARK  261  A    between atoms: _638  and  _639
REMARK  262  A    between atoms: _638  and  _641
REMARK  263  A    between atoms: _641  and  _642
REMARK  264  A    between atoms: _647  and  _648
REMARK                            x       y       z     vdW  Elec       q    Type
REMARK                         _______ _______ _______ _____ _____    ______ ____
ROOT
ATOM      1  O   HOH     1      31.405  25.976  26.497  0.00  0.00    +0.000 OA
ENDROOT
TORSDOF 0
REMARK  Name = ../refined-set-2016/2qrq/2qrq_pocket.pdb
REMARK  264 active torsions:
REMARK  status: ('A' for Active; 'I' for Inactive)
REMARK    1  A    between atoms: _1  and  _3
REMARK    2  A    between atoms: _3  and  _4
REMARK    3  A    between atoms: _3  and  _6
REMARK    4  A    between atoms: _6  and  _7
REMARK    5  A    between atoms: _12  and  _13
REMARK    6  A    between atoms: _15  and  _17
REMARK    7  A    between atoms: _17  and  _18
REMARK    8  A    between atoms: _17  and  _20
REMARK    9  A    between atoms: _20  and  _21
REMARK   10  A    between atoms: _24  and  _26
REMARK   11  A    between atoms: _26  and  _27
REMARK   12  A    between atoms: _26  and  _29
REMARK   13  A    between atoms: _29  and  _30
REMARK   14  A    between atoms: _30  and  _31
REMARK   15  A    between atoms: _34  and  _36
REMARK   16  A    between atoms: _36  and  _37
REMARK   17  A    between atoms: _39  and  _41
REMARK   18  A    between atoms: _41  and  _42
REMARK   19  A    between atoms: _41  and  _44
REMARK   20  A    between atoms: _44  and  _45
REMARK   21  A    between atoms: _50  and  _52
REMARK   22  A    between atoms: _52  and  _53
REMARK   23  A    between atoms: _55  and  _57
REMARK   24  A    between atoms: _57  and  _58
REMARK   25  A    between atoms: _60  and  _62
REMARK   26  A    between atoms: _62  and  _63
REMARK   27  A    between atoms: _62  and  _65
REMARK   28  A    between atoms: _65  and  _66
REMARK   29  A    between atoms: _69  and  _71
REMARK   30  A    between atoms: _71  and  _72
REMARK   31  A    between atoms: _74  and  _76
REMARK   32  A    between atoms: _76  and  _77
REMARK   33  A    between atoms: _76  and  _79
REMARK   34  A    between atoms: _79  and  _80
REMARK   35  A    between atoms: _80  and  _81
REMARK   36  A    between atoms: _81  and  _82
REMARK   37  A    between atoms: _91  and  _93
REMARK   38  A    between atoms: _93  and  _94
REMARK   39  A    between atoms: _93  and  _96
REMARK   40  A    between atoms: _96  and  _97
REMARK   41  A    between atoms: _100  and  _102
REMARK   42  A    between atoms: _102  and  _103
REMARK   43  A    between atoms: _106  and  _108
REMARK   44  A    between atoms: _108  and  _109
REMARK   45  A    between atoms: _108  and  _111
REMARK   46  A    between atoms: _111  and  _112
REMARK   47  A    between atoms: _118  and  _120
REMARK   48  A    between atoms: _120  and  _121
REMARK   49  A    between atoms: _120  and  _123
REMARK   50  A    between atoms: _123  and  _124
REMARK   51  A    between atoms: _127  and  _129
REMARK   52  A    between atoms: _129  and  _130
REMARK   53  A    between atoms: _129  and  _132
REMARK   54  A    between atoms: _132  and  _133
REMARK   55  A    between atoms: _138  and  _139
REMARK   56  A    between atoms: _142  and  _143
REMARK   57  A    between atoms: _148  and  _150
REMARK   58  A    between atoms: _150  and  _151
REMARK   59  A    between atoms: _150  and  _153
REMARK   60  A    between atoms: _153  and  _154
REMARK   61  A    between atoms: _159  and  _161
REMARK   62  A    between atoms: _161  and  _162
REMARK   63  A    between atoms: _161  and  _164
REMARK   64  A    between atoms: _164  and  _165
REMARK   65  A    between atoms: _168  and  _170
REMARK   66  A    between atoms: _170  and  _171
REMARK   67  A    between atoms: _170  and  _173
REMARK   68  A    between atoms: _173  and  _174
REMARK   69  A    between atoms: _179  and  _181
REMARK   70  A    between atoms: _181  and  _182
REMARK   71  A    between atoms: _181  and  _184
REMARK   72  A    between atoms: _184  and  _185
REMARK   73  A    between atoms: _191  and  _193
REMARK   74  A    between atoms: _193  and  _194
REMARK   75  A    between atoms: _193  and  _196
REMARK   76  A    between atoms: _196  and  _197
REMARK   77  A    between atoms: _203  and  _205
REMARK   78  A    between atoms: _205  and  _206
REMARK   79  A    between atoms: _205  and  _208
REMARK   80  A    between atoms: _208  and  _209
REMARK   81  A    between atoms: _209  and  _210
REMARK   82  A    between atoms: _213  and  _215
REMARK   83  A    between atoms: _215  and  _216
REMARK   84  A    between atoms: _215  and  _218
REMARK   85  A    between atoms: _218  and  _219
REMARK   86  A    between atoms: _219  and  _220
REMARK   87  A    between atoms: _220  and  _221
REMARK   88  A    between atoms: _230  and  _232
REMARK   89  A    between atoms: _232  and  _233
REMARK   90  A    between atoms: _232  and  _235
REMARK   91  A    between atoms: _235  and  _236
REMARK   92  A    between atoms: _236  and  _237
REMARK   93  A    between atoms: _240  and  _242
REMARK   94  A    between atoms: _242  and  _243
REMARK   95  A    between atoms: _242  and  _245
REMARK   96  A    between atoms: _245  and  _246
REMARK   97  A    between atoms: _251  and  _253
REMARK   98  A    between atoms: _253  and  _254
REMARK   99  A    between atoms: _253  and  _256
REMARK  100  A    between atoms: _256  and  _257
REMARK  101  A    between atoms: _260  and  _262
REMARK  102  A    between atoms: _262  and  _263
REMARK  103  A    between atoms: _262  and  _265
REMARK  104  A    between atoms: _265  and  _266
REMARK  105  A    between atoms: _269  and  _271
REMARK  106  A    between atoms: _271  and  _272
REMARK  107  A    between atoms: _271  and  _274
REMARK  108  A    between atoms: _274  and  _275
REMARK  109  A    between atoms: _280  and  _282
REMARK  110  A    between atoms: _282  and  _283
REMARK  111  A    between atoms: _282  and  _285
REMARK  112  A    between atoms: _285  and  _286
REMARK  113  A    between atoms: _289  and  _291
REMARK  114  A    between atoms: _291  and  _292
REMARK  115  A    between atoms: _291  and  _294
REMARK  116  A    between atoms: _294  and  _295
REMARK  117  A    between atoms: _300  and  _302
REMARK  118  A    between atoms: _302  and  _303
REMARK  119  A    between atoms: _302  and  _305
REMARK  120  A    between atoms: _305  and  _306
REMARK  121  A    between atoms: _311  and  _313
REMARK  122  A    between atoms: _313  and  _314
REMARK  123  A    between atoms: _313  and  _316
REMARK  124  A    between atoms: _316  and  _317
REMARK  125  A    between atoms: _320  and  _322
REMARK  126  A    between atoms: _322  and  _323
REMARK  127  A    between atoms: _322  and  _325
REMARK  128  A    between atoms: _328  and  _330
REMARK  129  A    between atoms: _330  and  _331
REMARK  130  A    between atoms: _330  and  _333
REMARK  131  A    between atoms: _333  and  _334
REMARK  132  A    between atoms: _337  and  _339
REMARK  133  A    between atoms: _339  and  _340
REMARK  134  A    between atoms: _343  and  _345
REMARK  135  A    between atoms: _345  and  _346
REMARK  136  A    between atoms: _345  and  _348
REMARK  137  A    between atoms: _348  and  _349
REMARK  138  A    between atoms: _352  and  _354
REMARK  139  A    between atoms: _354  and  _355
REMARK  140  A    between atoms: _354  and  _357
REMARK  141  A    between atoms: _357  and  _358
REMARK  142  A    between atoms: _358  and  _359
REMARK  143  A    between atoms: _362  and  _364
REMARK  144  A    between atoms: _364  and  _365
REMARK  145  A    between atoms: _364  and  _367
REMARK  146  A    between atoms: _367  and  _368
REMARK  147  A    between atoms: _373  and  _375
REMARK  148  A    between atoms: _375  and  _376
REMARK  149  A    between atoms: _378  and  _380
REMARK  150  A    between atoms: _380  and  _381
REMARK  151  A    between atoms: _380  and  _383
REMARK  152  A    between atoms: _386  and  _388
REMARK  153  A    between atoms: _388  and  _389
REMARK  154  A    between atoms: _392  and  _394
REMARK  155  A    between atoms: _394  and  _395
REMARK  156  A    between atoms: _394  and  _397
REMARK  157  A    between atoms: _397  and  _398
REMARK  158  A    between atoms: _403  and  _405
REMARK  159  A    between atoms: _405  and  _406
REMARK  160  A    between atoms: _405  and  _408
REMARK  161  A    between atoms: _408  and  _409
REMARK  162  A    between atoms: _409  and  _410
REMARK  163  A    between atoms: _410  and  _411
REMARK  164  A    between atoms: _411  and  _412
REMARK  165  A    between atoms: _416  and  _418
REMARK  166  A    between atoms: _418  and  _419
REMARK  167  A    between atoms: _418  and  _421
REMARK  168  A    between atoms: _421  and  _422
REMARK  169  A    between atoms: _425  and  _427
REMARK  170  A    between atoms: _427  and  _428
REMARK  171  A    between atoms: _427  and  _430
REMARK  172  A    between atoms: _430  and  _431
REMARK  173  A    between atoms: _436  and  _438
REMARK  174  A    between atoms: _438  and  _439
REMARK  175  A    between atoms: _441  and  _443
REMARK  176  A    between atoms: _443  and  _444
REMARK  177  A    between atoms: _443  and  _446
REMARK  178  A    between atoms: _446  and  _447
REMARK  179  A    between atoms: _447  and  _448
REMARK  180  A    between atoms: _448  and  _449
REMARK  181  A    between atoms: _449  and  _450
REMARK  182  A    between atoms: _454  and  _456
REMARK  183  A    between atoms: _456  and  _457
REMARK  184  A    between atoms: _456  and  _459
REMARK  185  A    between atoms: _459  and  _460
REMARK  186  A    between atoms: _460  and  _461
REMARK  187  A    between atoms: _461  and  _462
REMARK  188  A    between atoms: _471  and  _473
REMARK  189  A    between atoms: _473  and  _474
REMARK  190  A    between atoms: _473  and  _476
REMARK  191  A    between atoms: _476  and  _477
REMARK  192  A    between atoms: _482  and  _484
REMARK  193  A    between atoms: _484  and  _485
REMARK  194  A    between atoms: _484  and  _487
REMARK  195  A    between atoms: _487  and  _488
REMARK  196  A    between atoms: _493  and  _494
REMARK  197  A    between atoms: _496  and  _498
REMARK  198  A    between atoms: _498  and  _499
REMARK  199  A    between atoms: _498  and  _501
REMARK  200  A    between atoms: _501  and  _502
REMARK  201  A    between atoms: _502  and  _503
REMARK  202  A    between atoms: _503  and  _504
REMARK  203  A    between atoms: _504  and  _505
REMARK  204  A    between atoms: _509  and  _511
REMARK  205  A    between atoms: _511  and  _512
REMARK  206  A    between atoms: _511  and  _514
REMARK  207  A    between atoms: _514  and  _515
REMARK  208  A    between atoms: _517  and  _519
REMARK  209  A    between atoms: _519  and  _520
REMARK  210  A    between atoms: _519  and  _522
REMARK  211  A    between atoms: _522  and  _523
REMARK  212  A    between atoms: _526  and  _528
REMARK  213  A    between atoms: _528  and  _529
REMARK  214  A    between atoms: _528  and  _531
REMARK  215  A    between atoms: _531  and  _532
REMARK  216  A    between atoms: _532  and  _533
REMARK  217  A    between atoms: _536  and  _538
REMARK  218  A    between atoms: _538  and  _539
REMARK  219  A    between atoms: _542  and  _544
REMARK  220  A    between atoms: _544  and  _545
REMARK  221  A    between atoms: _544  and  _547
REMARK  222  A    between atoms: _547  and  _548
REMARK  223  A    between atoms: _550  and  _552
REMARK  224  A    between atoms: _552  and  _553
REMARK  225  A    between atoms: _555  and  _557
REMARK  226  A    between atoms: _557  and  _558
REMARK  227  A    between atoms: _557  and  _560
REMARK  228  A    between atoms: _560  and  _561
REMARK  229  A    between atoms: _564  and  _566
REMARK  230  A    between atoms: _566  and  _567
REMARK  231  A    between atoms: _569  and  _571
REMARK  232  A    between atoms: _571  and  _572
REMARK  233  A    between atoms: _571  and  _574
REMARK  234  A    between atoms: _574  and  _575
REMARK  235  A    between atoms: _580  and  _582
REMARK  236  A    between atoms: _582  and  _583
REMARK  237  A    between atoms: _582  and  _585
REMARK  238  A    between atoms: _585  and  _586
REMARK  239  A    between atoms: _586  and  _587
REMARK  240  A    between atoms: _594  and  _595
REMARK  241  A    between atoms: _595  and  _611
REMARK  242  A    between atoms: _596  and  _598
REMARK  243  A    between atoms: _598  and  _599
REMARK  244  A    between atoms: _599  and  _600
REMARK  245  A    between atoms: _604  and  _606
REMARK  246  A    between atoms: _606  and  _607
REMARK  247  A    between atoms: _606  and  _614
REMARK  248  A    between atoms: _607  and  _608
REMARK  249  A    between atoms: _608  and  _609
REMARK  250  A    between atoms: _609  and  _610
REMARK  251  A    between atoms: _610  and  _611
REMARK  252  A    between atoms: _616  and  _618
REMARK  253  A    between atoms: _618  and  _619
REMARK  254  A    between atoms: _618  and  _621
REMARK  255  A    between atoms: _621  and  _622
REMARK  256  A    between atoms: _625  and  _627
REMARK  257  A    between atoms: _627  and  _628
REMARK  258  A    between atoms: _630  and  _632
REMARK  259  A    between atoms: _632  and  _633
REMARK  260  A    between atoms: _636  and  _638
REMARK  261  A    between atoms: _638  and  _639
REMARK  262  A    between atoms: _638  and  _641
REMARK  263  A    between atoms: _641  and  _642
REMARK  264  A    between atoms: _647  and  _648
REMARK                            x       y       z     vdW  Elec       q    Type
REMARK                         _______ _______ _______ _____ _____    ______ ____
ROOT
ATOM      1  O   HOH     1      38.295  23.673  21.844  0.00  0.00    +0.000 OA
ENDROOT
TORSDOF 0
REMARK  Name = ../refined-set-2016/2qrq/2qrq_pocket.pdb
REMARK  264 active torsions:
REMARK  status: ('A' for Active; 'I' for Inactive)
REMARK    1  A    between atoms: _1  and  _3
REMARK    2  A    between atoms: _3  and  _4
REMARK    3  A    between atoms: _3  and  _6
REMARK    4  A    between atoms: _6  and  _7
REMARK    5  A    between atoms: _12  and  _13
REMARK    6  A    between atoms: _15  and  _17
REMARK    7  A    between atoms: _17  and  _18
REMARK    8  A    between atoms: _17  and  _20
REMARK    9  A    between atoms: _20  and  _21
REMARK   10  A    between atoms: _24  and  _26
REMARK   11  A    between atoms: _26  and  _27
REMARK   12  A    between atoms: _26  and  _29
REMARK   13  A    between atoms: _29  and  _30
REMARK   14  A    between atoms: _30  and  _31
REMARK   15  A    between atoms: _34  and  _36
REMARK   16  A    between atoms: _36  and  _37
REMARK   17  A    between atoms: _39  and  _41
REMARK   18  A    between atoms: _41  and  _42
REMARK   19  A    between atoms: _41  and  _44
REMARK   20  A    between atoms: _44  and  _45
REMARK   21  A    between atoms: _50  and  _52
REMARK   22  A    between atoms: _52  and  _53
REMARK   23  A    between atoms: _55  and  _57
REMARK   24  A    between atoms: _57  and  _58
REMARK   25  A    between atoms: _60  and  _62
REMARK   26  A    between atoms: _62  and  _63
REMARK   27  A    between atoms: _62  and  _65
REMARK   28  A    between atoms: _65  and  _66
REMARK   29  A    between atoms: _69  and  _71
REMARK   30  A    between atoms: _71  and  _72
REMARK   31  A    between atoms: _74  and  _76
REMARK   32  A    between atoms: _76  and  _77
REMARK   33  A    between atoms: _76  and  _79
REMARK   34  A    between atoms: _79  and  _80
REMARK   35  A    between atoms: _80  and  _81
REMARK   36  A    between atoms: _81  and  _82
REMARK   37  A    between atoms: _91  and  _93
REMARK   38  A    between atoms: _93  and  _94
REMARK   39  A    between atoms: _93  and  _96
REMARK   40  A    between atoms: _96  and  _97
REMARK   41  A    between atoms: _100  and  _102
REMARK   42  A    between atoms: _102  and  _103
REMARK   43  A    between atoms: _106  and  _108
REMARK   44  A    between atoms: _108  and  _109
REMARK   45  A    between atoms: _108  and  _111
REMARK   46  A    between atoms: _111  and  _112
REMARK   47  A    between atoms: _118  and  _120
REMARK   48  A    between atoms: _120  and  _121
REMARK   49  A    between atoms: _120  and  _123
REMARK   50  A    between atoms: _123  and  _124
REMARK   51  A    between atoms: _127  and  _129
REMARK   52  A    between atoms: _129  and  _130
REMARK   53  A    between atoms: _129  and  _132
REMARK   54  A    between atoms: _132  and  _133
REMARK   55  A    between atoms: _138  and  _139
REMARK   56  A    between atoms: _142  and  _143
REMARK   57  A    between atoms: _148  and  _150
REMARK   58  A    between atoms: _150  and  _151
REMARK   59  A    between atoms: _150  and  _153
REMARK   60  A    between atoms: _153  and  _154
REMARK   61  A    between atoms: _159  and  _161
REMARK   62  A    between atoms: _161  and  _162
REMARK   63  A    between atoms: _161  and  _164
REMARK   64  A    between atoms: _164  and  _165
REMARK   65  A    between atoms: _168  and  _170
REMARK   66  A    between atoms: _170  and  _171
REMARK   67  A    between atoms: _170  and  _173
REMARK   68  A    between atoms: _173  and  _174
REMARK   69  A    between atoms: _179  and  _181
REMARK   70  A    between atoms: _181  and  _182
REMARK   71  A    between atoms: _181  and  _184
REMARK   72  A    between atoms: _184  and  _185
REMARK   73  A    between atoms: _191  and  _193
REMARK   74  A    between atoms: _193  and  _194
REMARK   75  A    between atoms: _193  and  _196
REMARK   76  A    between atoms: _196  and  _197
REMARK   77  A    between atoms: _203  and  _205
REMARK   78  A    between atoms: _205  and  _206
REMARK   79  A    between atoms: _205  and  _208
REMARK   80  A    between atoms: _208  and  _209
REMARK   81  A    between atoms: _209  and  _210
REMARK   82  A    between atoms: _213  and  _215
REMARK   83  A    between atoms: _215  and  _216
REMARK   84  A    between atoms: _215  and  _218
REMARK   85  A    between atoms: _218  and  _219
REMARK   86  A    between atoms: _219  and  _220
REMARK   87  A    between atoms: _220  and  _221
REMARK   88  A    between atoms: _230  and  _232
REMARK   89  A    between atoms: _232  and  _233
REMARK   90  A    between atoms: _232  and  _235
REMARK   91  A    between atoms: _235  and  _236
REMARK   92  A    between atoms: _236  and  _237
REMARK   93  A    between atoms: _240  and  _242
REMARK   94  A    between atoms: _242  and  _243
REMARK   95  A    between atoms: _242  and  _245
REMARK   96  A    between atoms: _245  and  _246
REMARK   97  A    between atoms: _251  and  _253
REMARK   98  A    between atoms: _253  and  _254
REMARK   99  A    between atoms: _253  and  _256
REMARK  100  A    between atoms: _256  and  _257
REMARK  101  A    between atoms: _260  and  _262
REMARK  102  A    between atoms: _262  and  _263
REMARK  103  A    between atoms: _262  and  _265
REMARK  104  A    between atoms: _265  and  _266
REMARK  105  A    between atoms: _269  and  _271
REMARK  106  A    between atoms: _271  and  _272
REMARK  107  A    between atoms: _271  and  _274
REMARK  108  A    between atoms: _274  and  _275
REMARK  109  A    between atoms: _280  and  _282
REMARK  110  A    between atoms: _282  and  _283
REMARK  111  A    between atoms: _282  and  _285
REMARK  112  A    between atoms: _285  and  _286
REMARK  113  A    between atoms: _289  and  _291
REMARK  114  A    between atoms: _291  and  _292
REMARK  115  A    between atoms: _291  and  _294
REMARK  116  A    between atoms: _294  and  _295
REMARK  117  A    between atoms: _300  and  _302
REMARK  118  A    between atoms: _302  and  _303
REMARK  119  A    between atoms: _302  and  _305
REMARK  120  A    between atoms: _305  and  _306
REMARK  121  A    between atoms: _311  and  _313
REMARK  122  A    between atoms: _313  and  _314
REMARK  123  A    between atoms: _313  and  _316
REMARK  124  A    between atoms: _316  and  _317
REMARK  125  A    between atoms: _320  and  _322
REMARK  126  A    between atoms: _322  and  _323
REMARK  127  A    between atoms: _322  and  _325
REMARK  128  A    between atoms: _328  and  _330
REMARK  129  A    between atoms: _330  and  _331
REMARK  130  A    between atoms: _330  and  _333
REMARK  131  A    between atoms: _333  and  _334
REMARK  132  A    between atoms: _337  and  _339
REMARK  133  A    between atoms: _339  and  _340
REMARK  134  A    between atoms: _343  and  _345
REMARK  135  A    between atoms: _345  and  _346
REMARK  136  A    between atoms: _345  and  _348
REMARK  137  A    between atoms: _348  and  _349
REMARK  138  A    between atoms: _352  and  _354
REMARK  139  A    between atoms: _354  and  _355
REMARK  140  A    between atoms: _354  and  _357
REMARK  141  A    between atoms: _357  and  _358
REMARK  142  A    between atoms: _358  and  _359
REMARK  143  A    between atoms: _362  and  _364
REMARK  144  A    between atoms: _364  and  _365
REMARK  145  A    between atoms: _364  and  _367
REMARK  146  A    between atoms: _367  and  _368
REMARK  147  A    between atoms: _373  and  _375
REMARK  148  A    between atoms: _375  and  _376
REMARK  149  A    between atoms: _378  and  _380
REMARK  150  A    between atoms: _380  and  _381
REMARK  151  A    between atoms: _380  and  _383
REMARK  152  A    between atoms: _386  and  _388
REMARK  153  A    between atoms: _388  and  _389
REMARK  154  A    between atoms: _392  and  _394
REMARK  155  A    between atoms: _394  and  _395
REMARK  156  A    between atoms: _394  and  _397
REMARK  157  A    between atoms: _397  and  _398
REMARK  158  A    between atoms: _403  and  _405
REMARK  159  A    between atoms: _405  and  _406
REMARK  160  A    between atoms: _405  and  _408
REMARK  161  A    between atoms: _408  and  _409
REMARK  162  A    between atoms: _409  and  _410
REMARK  163  A    between atoms: _410  and  _411
REMARK  164  A    between atoms: _411  and  _412
REMARK  165  A    between atoms: _416  and  _418
REMARK  166  A    between atoms: _418  and  _419
REMARK  167  A    between atoms: _418  and  _421
REMARK  168  A    between atoms: _421  and  _422
REMARK  169  A    between atoms: _425  and  _427
REMARK  170  A    between atoms: _427  and  _428
REMARK  171  A    between atoms: _427  and  _430
REMARK  172  A    between atoms: _430  and  _431
REMARK  173  A    between atoms: _436  and  _438
REMARK  174  A    between atoms: _438  and  _439
REMARK  175  A    between atoms: _441  and  _443
REMARK  176  A    between atoms: _443  and  _444
REMARK  177  A    between atoms: _443  and  _446
REMARK  178  A    between atoms: _446  and  _447
REMARK  179  A    between atoms: _447  and  _448
REMARK  180  A    between atoms: _448  and  _449
REMARK  181  A    between atoms: _449  and  _450
REMARK  182  A    between atoms: _454  and  _456
REMARK  183  A    between atoms: _456  and  _457
REMARK  184  A    between atoms: _456  and  _459
REMARK  185  A    between atoms: _459  and  _460
REMARK  186  A    between atoms: _460  and  _461
REMARK  187  A    between atoms: _461  and  _462
REMARK  188  A    between atoms: _471  and  _473
REMARK  189  A    between atoms: _473  and  _474
REMARK  190  A    between atoms: _473  and  _476
REMARK  191  A    between atoms: _476  and  _477
REMARK  192  A    between atoms: _482  and  _484
REMARK  193  A    between atoms: _484  and  _485
REMARK  194  A    between atoms: _484  and  _487
REMARK  195  A    between atoms: _487  and  _488
REMARK  196  A    between atoms: _493  and  _494
REMARK  197  A    between atoms: _496  and  _498
REMARK  198  A    between atoms: _498  and  _499
REMARK  199  A    between atoms: _498  and  _501
REMARK  200  A    between atoms: _501  and  _502
REMARK  201  A    between atoms: _502  and  _503
REMARK  202  A    between atoms: _503  and  _504
REMARK  203  A    between atoms: _504  and  _505
REMARK  204  A    between atoms: _509  and  _511
REMARK  205  A    between atoms: _511  and  _512
REMARK  206  A    between atoms: _511  and  _514
REMARK  207  A    between atoms: _514  and  _515
REMARK  208  A    between atoms: _517  and  _519
REMARK  209  A    between atoms: _519  and  _520
REMARK  210  A    between atoms: _519  and  _522
REMARK  211  A    between atoms: _522  and  _523
REMARK  212  A    between atoms: _526  and  _528
REMARK  213  A    between atoms: _528  and  _529
REMARK  214  A    between atoms: _528  and  _531
REMARK  215  A    between atoms: _531  and  _532
REMARK  216  A    between atoms: _532  and  _533
REMARK  217  A    between atoms: _536  and  _538
REMARK  218  A    between atoms: _538  and  _539
REMARK  219  A    between atoms: _542  and  _544
REMARK  220  A    between atoms: _544  and  _545
REMARK  221  A    between atoms: _544  and  _547
REMARK  222  A    between atoms: _547  and  _548
REMARK  223  A    between atoms: _550  and  _552
REMARK  224  A    between atoms: _552  and  _553
REMARK  225  A    between atoms: _555  and  _557
REMARK  226  A    between atoms: _557  and  _558
REMARK  227  A    between atoms: _557  and  _560
REMARK  228  A    between atoms: _560  and  _561
REMARK  229  A    between atoms: _564  and  _566
REMARK  230  A    between atoms: _566  and  _567
REMARK  231  A    between atoms: _569  and  _571
REMARK  232  A    between atoms: _571  and  _572
REMARK  233  A    between atoms: _571  and  _574
REMARK  234  A    between atoms: _574  and  _575
REMARK  235  A    between atoms: _580  and  _582
REMARK  236  A    between atoms: _582  and  _583
REMARK  237  A    between atoms: _582  and  _585
REMARK  238  A    between atoms: _585  and  _586
REMARK  239  A    between atoms: _586  and  _587
REMARK  240  A    between atoms: _594  and  _595
REMARK  241  A    between atoms: _595  and  _611
REMARK  242  A    between atoms: _596  and  _598
REMARK  243  A    between atoms: _598  and  _599
REMARK  244  A    between atoms: _599  and  _600
REMARK  245  A    between atoms: _604  and  _606
REMARK  246  A    between atoms: _606  and  _607
REMARK  247  A    between atoms: _606  and  _614
REMARK  248  A    between atoms: _607  and  _608
REMARK  249  A    between atoms: _608  and  _609
REMARK  250  A    between atoms: _609  and  _610
REMARK  251  A    between atoms: _610  and  _611
REMARK  252  A    between atoms: _616  and  _618
REMARK  253  A    between atoms: _618  and  _619
REMARK  254  A    between atoms: _618  and  _621
REMARK  255  A    between atoms: _621  and  _622
REMARK  256  A    between atoms: _625  and  _627
REMARK  257  A    between atoms: _627  and  _628
REMARK  258  A    between atoms: _630  and  _632
REMARK  259  A    between atoms: _632  and  _633
REMARK  260  A    between atoms: _636  and  _638
REMARK  261  A    between atoms: _638  and  _639
REMARK  262  A    between atoms: _638  and  _641
REMARK  263  A    between atoms: _641  and  _642
REMARK  264  A    between atoms: _647  and  _648
REMARK                            x       y       z     vdW  Elec       q    Type
REMARK                         _______ _______ _______ _____ _____    ______ ____
ROOT
ATOM      1  O   HOH     1      39.573  22.967  29.831  0.00  0.00    +0.000 OA
ENDROOT
TORSDOF 0
REMARK  Name = ../refined-set-2016/2qrq/2qrq_pocket.pdb
REMARK  264 active torsions:
REMARK  status: ('A' for Active; 'I' for Inactive)
REMARK    1  A    between atoms: _1  and  _3
REMARK    2  A    between atoms: _3  and  _4
REMARK    3  A    between atoms: _3  and  _6
REMARK    4  A    between atoms: _6  and  _7
REMARK    5  A    between atoms: _12  and  _13
REMARK    6  A    between atoms: _15  and  _17
REMARK    7  A    between atoms: _17  and  _18
REMARK    8  A    between atoms: _17  and  _20
REMARK    9  A    between atoms: _20  and  _21
REMARK   10  A    between atoms: _24  and  _26
REMARK   11  A    between atoms: _26  and  _27
REMARK   12  A    between atoms: _26  and  _29
REMARK   13  A    between atoms: _29  and  _30
REMARK   14  A    between atoms: _30  and  _31
REMARK   15  A    between atoms: _34  and  _36
REMARK   16  A    between atoms: _36  and  _37
REMARK   17  A    between atoms: _39  and  _41
REMARK   18  A    between atoms: _41  and  _42
REMARK   19  A    between atoms: _41  and  _44
REMARK   20  A    between atoms: _44  and  _45
REMARK   21  A    between atoms: _50  and  _52
REMARK   22  A    between atoms: _52  and  _53
REMARK   23  A    between atoms: _55  and  _57
REMARK   24  A    between atoms: _57  and  _58
REMARK   25  A    between atoms: _60  and  _62
REMARK   26  A    between atoms: _62  and  _63
REMARK   27  A    between atoms: _62  and  _65
REMARK   28  A    between atoms: _65  and  _66
REMARK   29  A    between atoms: _69  and  _71
REMARK   30  A    between atoms: _71  and  _72
REMARK   31  A    between atoms: _74  and  _76
REMARK   32  A    between atoms: _76  and  _77
REMARK   33  A    between atoms: _76  and  _79
REMARK   34  A    between atoms: _79  and  _80
REMARK   35  A    between atoms: _80  and  _81
REMARK   36  A    between atoms: _81  and  _82
REMARK   37  A    between atoms: _91  and  _93
REMARK   38  A    between atoms: _93  and  _94
REMARK   39  A    between atoms: _93  and  _96
REMARK   40  A    between atoms: _96  and  _97
REMARK   41  A    between atoms: _100  and  _102
REMARK   42  A    between atoms: _102  and  _103
REMARK   43  A    between atoms: _106  and  _108
REMARK   44  A    between atoms: _108  and  _109
REMARK   45  A    between atoms: _108  and  _111
REMARK   46  A    between atoms: _111  and  _112
REMARK   47  A    between atoms: _118  and  _120
REMARK   48  A    between atoms: _120  and  _121
REMARK   49  A    between atoms: _120  and  _123
REMARK   50  A    between atoms: _123  and  _124
REMARK   51  A    between atoms: _127  and  _129
REMARK   52  A    between atoms: _129  and  _130
REMARK   53  A    between atoms: _129  and  _132
REMARK   54  A    between atoms: _132  and  _133
REMARK   55  A    between atoms: _138  and  _139
REMARK   56  A    between atoms: _142  and  _143
REMARK   57  A    between atoms: _148  and  _150
REMARK   58  A    between atoms: _150  and  _151
REMARK   59  A    between atoms: _150  and  _153
REMARK   60  A    between atoms: _153  and  _154
REMARK   61  A    between atoms: _159  and  _161
REMARK   62  A    between atoms: _161  and  _162
REMARK   63  A    between atoms: _161  and  _164
REMARK   64  A    between atoms: _164  and  _165
REMARK   65  A    between atoms: _168  and  _170
REMARK   66  A    between atoms: _170  and  _171
REMARK   67  A    between atoms: _170  and  _173
REMARK   68  A    between atoms: _173  and  _174
REMARK   69  A    between atoms: _179  and  _181
REMARK   70  A    between atoms: _181  and  _182
REMARK   71  A    between atoms: _181  and  _184
REMARK   72  A    between atoms: _184  and  _185
REMARK   73  A    between atoms: _191  and  _193
REMARK   74  A    between atoms: _193  and  _194
REMARK   75  A    between atoms: _193  and  _196
REMARK   76  A    between atoms: _196  and  _197
REMARK   77  A    between atoms: _203  and  _205
REMARK   78  A    between atoms: _205  and  _206
REMARK   79  A    between atoms: _205  and  _208
REMARK   80  A    between atoms: _208  and  _209
REMARK   81  A    between atoms: _209  and  _210
REMARK   82  A    between atoms: _213  and  _215
REMARK   83  A    between atoms: _215  and  _216
REMARK   84  A    between atoms: _215  and  _218
REMARK   85  A    between atoms: _218  and  _219
REMARK   86  A    between atoms: _219  and  _220
REMARK   87  A    between atoms: _220  and  _221
REMARK   88  A    between atoms: _230  and  _232
REMARK   89  A    between atoms: _232  and  _233
REMARK   90  A    between atoms: _232  and  _235
REMARK   91  A    between atoms: _235  and  _236
REMARK   92  A    between atoms: _236  and  _237
REMARK   93  A    between atoms: _240  and  _242
REMARK   94  A    between atoms: _242  and  _243
REMARK   95  A    between atoms: _242  and  _245
REMARK   96  A    between atoms: _245  and  _246
REMARK   97  A    between atoms: _251  and  _253
REMARK   98  A    between atoms: _253  and  _254
REMARK   99  A    between atoms: _253  and  _256
REMARK  100  A    between atoms: _256  and  _257
REMARK  101  A    between atoms: _260  and  _262
REMARK  102  A    between atoms: _262  and  _263
REMARK  103  A    between atoms: _262  and  _265
REMARK  104  A    between atoms: _265  and  _266
REMARK  105  A    between atoms: _269  and  _271
REMARK  106  A    between atoms: _271  and  _272
REMARK  107  A    between atoms: _271  and  _274
REMARK  108  A    between atoms: _274  and  _275
REMARK  109  A    between atoms: _280  and  _282
REMARK  110  A    between atoms: _282  and  _283
REMARK  111  A    between atoms: _282  and  _285
REMARK  112  A    between atoms: _285  and  _286
REMARK  113  A    between atoms: _289  and  _291
REMARK  114  A    between atoms: _291  and  _292
REMARK  115  A    between atoms: _291  and  _294
REMARK  116  A    between atoms: _294  and  _295
REMARK  117  A    between atoms: _300  and  _302
REMARK  118  A    between atoms: _302  and  _303
REMARK  119  A    between atoms: _302  and  _305
REMARK  120  A    between atoms: _305  and  _306
REMARK  121  A    between atoms: _311  and  _313
REMARK  122  A    between atoms: _313  and  _314
REMARK  123  A    between atoms: _313  and  _316
REMARK  124  A    between atoms: _316  and  _317
REMARK  125  A    between atoms: _320  and  _322
REMARK  126  A    between atoms: _322  and  _323
REMARK  127  A    between atoms: _322  and  _325
REMARK  128  A    between atoms: _328  and  _330
REMARK  129  A    between atoms: _330  and  _331
REMARK  130  A    between atoms: _330  and  _333
REMARK  131  A    between atoms: _333  and  _334
REMARK  132  A    between atoms: _337  and  _339
REMARK  133  A    between atoms: _339  and  _340
REMARK  134  A    between atoms: _343  and  _345
REMARK  135  A    between atoms: _345  and  _346
REMARK  136  A    between atoms: _345  and  _348
REMARK  137  A    between atoms: _348  and  _349
REMARK  138  A    between atoms: _352  and  _354
REMARK  139  A    between atoms: _354  and  _355
REMARK  140  A    between atoms: _354  and  _357
REMARK  141  A    between atoms: _357  and  _358
REMARK  142  A    between atoms: _358  and  _359
REMARK  143  A    between atoms: _362  and  _364
REMARK  144  A    between atoms: _364  and  _365
REMARK  145  A    between atoms: _364  and  _367
REMARK  146  A    between atoms: _367  and  _368
REMARK  147  A    between atoms: _373  and  _375
REMARK  148  A    between atoms: _375  and  _376
REMARK  149  A    between atoms: _378  and  _380
REMARK  150  A    between atoms: _380  and  _381
REMARK  151  A    between atoms: _380  and  _383
REMARK  152  A    between atoms: _386  and  _388
REMARK  153  A    between atoms: _388  and  _389
REMARK  154  A    between atoms: _392  and  _394
REMARK  155  A    between atoms: _394  and  _395
REMARK  156  A    between atoms: _394  and  _397
REMARK  157  A    between atoms: _397  and  _398
REMARK  158  A    between atoms: _403  and  _405
REMARK  159  A    between atoms: _405  and  _406
REMARK  160  A    between atoms: _405  and  _408
REMARK  161  A    between atoms: _408  and  _409
REMARK  162  A    between atoms: _409  and  _410
REMARK  163  A    between atoms: _410  and  _411
REMARK  164  A    between atoms: _411  and  _412
REMARK  165  A    between atoms: _416  and  _418
REMARK  166  A    between atoms: _418  and  _419
REMARK  167  A    between atoms: _418  and  _421
REMARK  168  A    between atoms: _421  and  _422
REMARK  169  A    between atoms: _425  and  _427
REMARK  170  A    between atoms: _427  and  _428
REMARK  171  A    between atoms: _427  and  _430
REMARK  172  A    between atoms: _430  and  _431
REMARK  173  A    between atoms: _436  and  _438
REMARK  174  A    between atoms: _438  and  _439
REMARK  175  A    between atoms: _441  and  _443
REMARK  176  A    between atoms: _443  and  _444
REMARK  177  A    between atoms: _443  and  _446
REMARK  178  A    between atoms: _446  and  _447
REMARK  179  A    between atoms: _447  and  _448
REMARK  180  A    between atoms: _448  and  _449
REMARK  181  A    between atoms: _449  and  _450
REMARK  182  A    between atoms: _454  and  _456
REMARK  183  A    between atoms: _456  and  _457
REMARK  184  A    between atoms: _456  and  _459
REMARK  185  A    between atoms: _459  and  _460
REMARK  186  A    between atoms: _460  and  _461
REMARK  187  A    between atoms: _461  and  _462
REMARK  188  A    between atoms: _471  and  _473
REMARK  189  A    between atoms: _473  and  _474
REMARK  190  A    between atoms: _473  and  _476
REMARK  191  A    between atoms: _476  and  _477
REMARK  192  A    between atoms: _482  and  _484
REMARK  193  A    between atoms: _484  and  _485
REMARK  194  A    between atoms: _484  and  _487
REMARK  195  A    between atoms: _487  and  _488
REMARK  196  A    between atoms: _493  and  _494
REMARK  197  A    between atoms: _496  and  _498
REMARK  198  A    between atoms: _498  and  _499
REMARK  199  A    between atoms: _498  and  _501
REMARK  200  A    between atoms: _501  and  _502
REMARK  201  A    between atoms: _502  and  _503
REMARK  202  A    between atoms: _503  and  _504
REMARK  203  A    between atoms: _504  and  _505
REMARK  204  A    between atoms: _509  and  _511
REMARK  205  A    between atoms: _511  and  _512
REMARK  206  A    between atoms: _511  and  _514
REMARK  207  A    between atoms: _514  and  _515
REMARK  208  A    between atoms: _517  and  _519
REMARK  209  A    between atoms: _519  and  _520
REMARK  210  A    between atoms: _519  and  _522
REMARK  211  A    between atoms: _522  and  _523
REMARK  212  A    between atoms: _526  and  _528
REMARK  213  A    between atoms: _528  and  _529
REMARK  214  A    between atoms: _528  and  _531
REMARK  215  A    between atoms: _531  and  _532
REMARK  216  A    between atoms: _532  and  _533
REMARK  217  A    between atoms: _536  and  _538
REMARK  218  A    between atoms: _538  and  _539
REMARK  219  A    between atoms: _542  and  _544
REMARK  220  A    between atoms: _544  and  _545
REMARK  221  A    between atoms: _544  and  _547
REMARK  222  A    between atoms: _547  and  _548
REMARK  223  A    between atoms: _550  and  _552
REMARK  224  A    between atoms: _552  and  _553
REMARK  225  A    between atoms: _555  and  _557
REMARK  226  A    between atoms: _557  and  _558
REMARK  227  A    between atoms: _557  and  _560
REMARK  228  A    between atoms: _560  and  _561
REMARK  229  A    between atoms: _564  and  _566
REMARK  230  A    between atoms: _566  and  _567
REMARK  231  A    between atoms: _569  and  _571
REMARK  232  A    between atoms: _571  and  _572
REMARK  233  A    between atoms: _571  and  _574
REMARK  234  A    between atoms: _574  and  _575
REMARK  235  A    between atoms: _580  and  _582
REMARK  236  A    between atoms: _582  and  _583
REMARK  237  A    between atoms: _582  and  _585
REMARK  238  A    between atoms: _585  and  _586
REMARK  239  A    between atoms: _586  and  _587
REMARK  240  A    between atoms: _594  and  _595
REMARK  241  A    between atoms: _595  and  _611
REMARK  242  A    between atoms: _596  and  _598
REMARK  243  A    between atoms: _598  and  _599
REMARK  244  A    between atoms: _599  and  _600
REMARK  245  A    between atoms: _604  and  _606
REMARK  246  A    between atoms: _606  and  _607
REMARK  247  A    between atoms: _606  and  _614
REMARK  248  A    between atoms: _607  and  _608
REMARK  249  A    between atoms: _608  and  _609
REMARK  250  A    between atoms: _609  and  _610
REMARK  251  A    between atoms: _610  and  _611
REMARK  252  A    between atoms: _616  and  _618
REMARK  253  A    between atoms: _618  and  _619
REMARK  254  A    between atoms: _618  and  _621
REMARK  255  A    between atoms: _621  and  _622
REMARK  256  A    between atoms: _625  and  _627
REMARK  257  A    between atoms: _627  and  _628
REMARK  258  A    between atoms: _630  and  _632
REMARK  259  A    between atoms: _632  and  _633
REMARK  260  A    between atoms: _636  and  _638
REMARK  261  A    between atoms: _638  and  _639
REMARK  262  A    between atoms: _638  and  _641
REMARK  263  A    between atoms: _641  and  _642
REMARK  264  A    between atoms: _647  and  _648
REMARK                            x       y       z     vdW  Elec       q    Type
REMARK                         _______ _______ _______ _____ _____    ______ ____
ROOT
ATOM      1  O   HOH     1      36.409  26.455  27.339  0.00  0.00    +0.000 OA
ENDROOT
TORSDOF 0
REMARK  Name = ../refined-set-2016/2qrq/2qrq_pocket.pdb
REMARK  264 active torsions:
REMARK  status: ('A' for Active; 'I' for Inactive)
REMARK    1  A    between atoms: _1  and  _3
REMARK    2  A    between atoms: _3  and  _4
REMARK    3  A    between atoms: _3  and  _6
REMARK    4  A    between atoms: _6  and  _7
REMARK    5  A    between atoms: _12  and  _13
REMARK    6  A    between atoms: _15  and  _17
REMARK    7  A    between atoms: _17  and  _18
REMARK    8  A    between atoms: _17  and  _20
REMARK    9  A    between atoms: _20  and  _21
REMARK   10  A    between atoms: _24  and  _26
REMARK   11  A    between atoms: _26  and  _27
REMARK   12  A    between atoms: _26  and  _29
REMARK   13  A    between atoms: _29  and  _30
REMARK   14  A    between atoms: _30  and  _31
REMARK   15  A    between atoms: _34  and  _36
REMARK   16  A    between atoms: _36  and  _37
REMARK   17  A    between atoms: _39  and  _41
REMARK   18  A    between atoms: _41  and  _42
REMARK   19  A    between atoms: _41  and  _44
REMARK   20  A    between atoms: _44  and  _45
REMARK   21  A    between atoms: _50  and  _52
REMARK   22  A    between atoms: _52  and  _53
REMARK   23  A    between atoms: _55  and  _57
REMARK   24  A    between atoms: _57  and  _58
REMARK   25  A    between atoms: _60  and  _62
REMARK   26  A    between atoms: _62  and  _63
REMARK   27  A    between atoms: _62  and  _65
REMARK   28  A    between atoms: _65  and  _66
REMARK   29  A    between atoms: _69  and  _71
REMARK   30  A    between atoms: _71  and  _72
REMARK   31  A    between atoms: _74  and  _76
REMARK   32  A    between atoms: _76  and  _77
REMARK   33  A    between atoms: _76  and  _79
REMARK   34  A    between atoms: _79  and  _80
REMARK   35  A    between atoms: _80  and  _81
REMARK   36  A    between atoms: _81  and  _82
REMARK   37  A    between atoms: _91  and  _93
REMARK   38  A    between atoms: _93  and  _94
REMARK   39  A    between atoms: _93  and  _96
REMARK   40  A    between atoms: _96  and  _97
REMARK   41  A    between atoms: _100  and  _102
REMARK   42  A    between atoms: _102  and  _103
REMARK   43  A    between atoms: _106  and  _108
REMARK   44  A    between atoms: _108  and  _109
REMARK   45  A    between atoms: _108  and  _111
REMARK   46  A    between atoms: _111  and  _112
REMARK   47  A    between atoms: _118  and  _120
REMARK   48  A    between atoms: _120  and  _121
REMARK   49  A    between atoms: _120  and  _123
REMARK   50  A    between atoms: _123  and  _124
REMARK   51  A    between atoms: _127  and  _129
REMARK   52  A    between atoms: _129  and  _130
REMARK   53  A    between atoms: _129  and  _132
REMARK   54  A    between atoms: _132  and  _133
REMARK   55  A    between atoms: _138  and  _139
REMARK   56  A    between atoms: _142  and  _143
REMARK   57  A    between atoms: _148  and  _150
REMARK   58  A    between atoms: _150  and  _151
REMARK   59  A    between atoms: _150  and  _153
REMARK   60  A    between atoms: _153  and  _154
REMARK   61  A    between atoms: _159  and  _161
REMARK   62  A    between atoms: _161  and  _162
REMARK   63  A    between atoms: _161  and  _164
REMARK   64  A    between atoms: _164  and  _165
REMARK   65  A    between atoms: _168  and  _170
REMARK   66  A    between atoms: _170  and  _171
REMARK   67  A    between atoms: _170  and  _173
REMARK   68  A    between atoms: _173  and  _174
REMARK   69  A    between atoms: _179  and  _181
REMARK   70  A    between atoms: _181  and  _182
REMARK   71  A    between atoms: _181  and  _184
REMARK   72  A    between atoms: _184  and  _185
REMARK   73  A    between atoms: _191  and  _193
REMARK   74  A    between atoms: _193  and  _194
REMARK   75  A    between atoms: _193  and  _196
REMARK   76  A    between atoms: _196  and  _197
REMARK   77  A    between atoms: _203  and  _205
REMARK   78  A    between atoms: _205  and  _206
REMARK   79  A    between atoms: _205  and  _208
REMARK   80  A    between atoms: _208  and  _209
REMARK   81  A    between atoms: _209  and  _210
REMARK   82  A    between atoms: _213  and  _215
REMARK   83  A    between atoms: _215  and  _216
REMARK   84  A    between atoms: _215  and  _218
REMARK   85  A    between atoms: _218  and  _219
REMARK   86  A    between atoms: _219  and  _220
REMARK   87  A    between atoms: _220  and  _221
REMARK   88  A    between atoms: _230  and  _232
REMARK   89  A    between atoms: _232  and  _233
REMARK   90  A    between atoms: _232  and  _235
REMARK   91  A    between atoms: _235  and  _236
REMARK   92  A    between atoms: _236  and  _237
REMARK   93  A    between atoms: _240  and  _242
REMARK   94  A    between atoms: _242  and  _243
REMARK   95  A    between atoms: _242  and  _245
REMARK   96  A    between atoms: _245  and  _246
REMARK   97  A    between atoms: _251  and  _253
REMARK   98  A    between atoms: _253  and  _254
REMARK   99  A    between atoms: _253  and  _256
REMARK  100  A    between atoms: _256  and  _257
REMARK  101  A    between atoms: _260  and  _262
REMARK  102  A    between atoms: _262  and  _263
REMARK  103  A    between atoms: _262  and  _265
REMARK  104  A    between atoms: _265  and  _266
REMARK  105  A    between atoms: _269  and  _271
REMARK  106  A    between atoms: _271  and  _272
REMARK  107  A    between atoms: _271  and  _274
REMARK  108  A    between atoms: _274  and  _275
REMARK  109  A    between atoms: _280  and  _282
REMARK  110  A    between atoms: _282  and  _283
REMARK  111  A    between atoms: _282  and  _285
REMARK  112  A    between atoms: _285  and  _286
REMARK  113  A    between atoms: _289  and  _291
REMARK  114  A    between atoms: _291  and  _292
REMARK  115  A    between atoms: _291  and  _294
REMARK  116  A    between atoms: _294  and  _295
REMARK  117  A    between atoms: _300  and  _302
REMARK  118  A    between atoms: _302  and  _303
REMARK  119  A    between atoms: _302  and  _305
REMARK  120  A    between atoms: _305  and  _306
REMARK  121  A    between atoms: _311  and  _313
REMARK  122  A    between atoms: _313  and  _314
REMARK  123  A    between atoms: _313  and  _316
REMARK  124  A    between atoms: _316  and  _317
REMARK  125  A    between atoms: _320  and  _322
REMARK  126  A    between atoms: _322  and  _323
REMARK  127  A    between atoms: _322  and  _325
REMARK  128  A    between atoms: _328  and  _330
REMARK  129  A    between atoms: _330  and  _331
REMARK  130  A    between atoms: _330  and  _333
REMARK  131  A    between atoms: _333  and  _334
REMARK  132  A    between atoms: _337  and  _339
REMARK  133  A    between atoms: _339  and  _340
REMARK  134  A    between atoms: _343  and  _345
REMARK  135  A    between atoms: _345  and  _346
REMARK  136  A    between atoms: _345  and  _348
REMARK  137  A    between atoms: _348  and  _349
REMARK  138  A    between atoms: _352  and  _354
REMARK  139  A    between atoms: _354  and  _355
REMARK  140  A    between atoms: _354  and  _357
REMARK  141  A    between atoms: _357  and  _358
REMARK  142  A    between atoms: _358  and  _359
REMARK  143  A    between atoms: _362  and  _364
REMARK  144  A    between atoms: _364  and  _365
REMARK  145  A    between atoms: _364  and  _367
REMARK  146  A    between atoms: _367  and  _368
REMARK  147  A    between atoms: _373  and  _375
REMARK  148  A    between atoms: _375  and  _376
REMARK  149  A    between atoms: _378  and  _380
REMARK  150  A    between atoms: _380  and  _381
REMARK  151  A    between atoms: _380  and  _383
REMARK  152  A    between atoms: _386  and  _388
REMARK  153  A    between atoms: _388  and  _389
REMARK  154  A    between atoms: _392  and  _394
REMARK  155  A    between atoms: _394  and  _395
REMARK  156  A    between atoms: _394  and  _397
REMARK  157  A    between atoms: _397  and  _398
REMARK  158  A    between atoms: _403  and  _405
REMARK  159  A    between atoms: _405  and  _406
REMARK  160  A    between atoms: _405  and  _408
REMARK  161  A    between atoms: _408  and  _409
REMARK  162  A    between atoms: _409  and  _410
REMARK  163  A    between atoms: _410  and  _411
REMARK  164  A    between atoms: _411  and  _412
REMARK  165  A    between atoms: _416  and  _418
REMARK  166  A    between atoms: _418  and  _419
REMARK  167  A    between atoms: _418  and  _421
REMARK  168  A    between atoms: _421  and  _422
REMARK  169  A    between atoms: _425  and  _427
REMARK  170  A    between atoms: _427  and  _428
REMARK  171  A    between atoms: _427  and  _430
REMARK  172  A    between atoms: _430  and  _431
REMARK  173  A    between atoms: _436  and  _438
REMARK  174  A    between atoms: _438  and  _439
REMARK  175  A    between atoms: _441  and  _443
REMARK  176  A    between atoms: _443  and  _444
REMARK  177  A    between atoms: _443  and  _446
REMARK  178  A    between atoms: _446  and  _447
REMARK  179  A    between atoms: _447  and  _448
REMARK  180  A    between atoms: _448  and  _449
REMARK  181  A    between atoms: _449  and  _450
REMARK  182  A    between atoms: _454  and  _456
REMARK  183  A    between atoms: _456  and  _457
REMARK  184  A    between atoms: _456  and  _459
REMARK  185  A    between atoms: _459  and  _460
REMARK  186  A    between atoms: _460  and  _461
REMARK  187  A    between atoms: _461  and  _462
REMARK  188  A    between atoms: _471  and  _473
REMARK  189  A    between atoms: _473  and  _474
REMARK  190  A    between atoms: _473  and  _476
REMARK  191  A    between atoms: _476  and  _477
REMARK  192  A    between atoms: _482  and  _484
REMARK  193  A    between atoms: _484  and  _485
REMARK  194  A    between atoms: _484  and  _487
REMARK  195  A    between atoms: _487  and  _488
REMARK  196  A    between atoms: _493  and  _494
REMARK  197  A    between atoms: _496  and  _498
REMARK  198  A    between atoms: _498  and  _499
REMARK  199  A    between atoms: _498  and  _501
REMARK  200  A    between atoms: _501  and  _502
REMARK  201  A    between atoms: _502  and  _503
REMARK  202  A    between atoms: _503  and  _504
REMARK  203  A    between atoms: _504  and  _505
REMARK  204  A    between atoms: _509  and  _511
REMARK  205  A    between atoms: _511  and  _512
REMARK  206  A    between atoms: _511  and  _514
REMARK  207  A    between atoms: _514  and  _515
REMARK  208  A    between atoms: _517  and  _519
REMARK  209  A    between atoms: _519  and  _520
REMARK  210  A    between atoms: _519  and  _522
REMARK  211  A    between atoms: _522  and  _523
REMARK  212  A    between atoms: _526  and  _528
REMARK  213  A    between atoms: _528  and  _529
REMARK  214  A    between atoms: _528  and  _531
REMARK  215  A    between atoms: _531  and  _532
REMARK  216  A    between atoms: _532  and  _533
REMARK  217  A    between atoms: _536  and  _538
REMARK  218  A    between atoms: _538  and  _539
REMARK  219  A    between atoms: _542  and  _544
REMARK  220  A    between atoms: _544  and  _545
REMARK  221  A    between atoms: _544  and  _547
REMARK  222  A    between atoms: _547  and  _548
REMARK  223  A    between atoms: _550  and  _552
REMARK  224  A    between atoms: _552  and  _553
REMARK  225  A    between atoms: _555  and  _557
REMARK  226  A    between atoms: _557  and  _558
REMARK  227  A    between atoms: _557  and  _560
REMARK  228  A    between atoms: _560  and  _561
REMARK  229  A    between atoms: _564  and  _566
REMARK  230  A    between atoms: _566  and  _567
REMARK  231  A    between atoms: _569  and  _571
REMARK  232  A    between atoms: _571  and  _572
REMARK  233  A    between atoms: _571  and  _574
REMARK  234  A    between atoms: _574  and  _575
REMARK  235  A    between atoms: _580  and  _582
REMARK  236  A    between atoms: _582  and  _583
REMARK  237  A    between atoms: _582  and  _585
REMARK  238  A    between atoms: _585  and  _586
REMARK  239  A    between atoms: _586  and  _587
REMARK  240  A    between atoms: _594  and  _595
REMARK  241  A    between atoms: _595  and  _611
REMARK  242  A    between atoms: _596  and  _598
REMARK  243  A    between atoms: _598  and  _599
REMARK  244  A    between atoms: _599  and  _600
REMARK  245  A    between atoms: _604  and  _606
REMARK  246  A    between atoms: _606  and  _607
REMARK  247  A    between atoms: _606  and  _614
REMARK  248  A    between atoms: _607  and  _608
REMARK  249  A    between atoms: _608  and  _609
REMARK  250  A    between atoms: _609  and  _610
REMARK  251  A    between atoms: _610  and  _611
REMARK  252  A    between atoms: _616  and  _618
REMARK  253  A    between atoms: _618  and  _619
REMARK  254  A    between atoms: _618  and  _621
REMARK  255  A    between atoms: _621  and  _622
REMARK  256  A    between atoms: _625  and  _627
REMARK  257  A    between atoms: _627  and  _628
REMARK  258  A    between atoms: _630  and  _632
REMARK  259  A    between atoms: _632  and  _633
REMARK  260  A    between atoms: _636  and  _638
REMARK  261  A    between atoms: _638  and  _639
REMARK  262  A    between atoms: _638  and  _641
REMARK  263  A    between atoms: _641  and  _642
REMARK  264  A    between atoms: _647  and  _648
REMARK                            x       y       z     vdW  Elec       q    Type
REMARK                         _______ _______ _______ _____ _____    ______ ____
ROOT
ATOM      1  O   HOH     1      38.330  27.682  38.039  0.00  0.00    +0.000 OA
ENDROOT
TORSDOF 0
REMARK  Name = ../refined-set-2016/2qrq/2qrq_pocket.pdb
REMARK  264 active torsions:
REMARK  status: ('A' for Active; 'I' for Inactive)
REMARK    1  A    between atoms: _1  and  _3
REMARK    2  A    between atoms: _3  and  _4
REMARK    3  A    between atoms: _3  and  _6
REMARK    4  A    between atoms: _6  and  _7
REMARK    5  A    between atoms: _12  and  _13
REMARK    6  A    between atoms: _15  and  _17
REMARK    7  A    between atoms: _17  and  _18
REMARK    8  A    between atoms: _17  and  _20
REMARK    9  A    between atoms: _20  and  _21
REMARK   10  A    between atoms: _24  and  _26
REMARK   11  A    between atoms: _26  and  _27
REMARK   12  A    between atoms: _26  and  _29
REMARK   13  A    between atoms: _29  and  _30
REMARK   14  A    between atoms: _30  and  _31
REMARK   15  A    between atoms: _34  and  _36
REMARK   16  A    between atoms: _36  and  _37
REMARK   17  A    between atoms: _39  and  _41
REMARK   18  A    between atoms: _41  and  _42
REMARK   19  A    between atoms: _41  and  _44
REMARK   20  A    between atoms: _44  and  _45
REMARK   21  A    between atoms: _50  and  _52
REMARK   22  A    between atoms: _52  and  _53
REMARK   23  A    between atoms: _55  and  _57
REMARK   24  A    between atoms: _57  and  _58
REMARK   25  A    between atoms: _60  and  _62
REMARK   26  A    between atoms: _62  and  _63
REMARK   27  A    between atoms: _62  and  _65
REMARK   28  A    between atoms: _65  and  _66
REMARK   29  A    between atoms: _69  and  _71
REMARK   30  A    between atoms: _71  and  _72
REMARK   31  A    between atoms: _74  and  _76
REMARK   32  A    between atoms: _76  and  _77
REMARK   33  A    between atoms: _76  and  _79
REMARK   34  A    between atoms: _79  and  _80
REMARK   35  A    between atoms: _80  and  _81
REMARK   36  A    between atoms: _81  and  _82
REMARK   37  A    between atoms: _91  and  _93
REMARK   38  A    between atoms: _93  and  _94
REMARK   39  A    between atoms: _93  and  _96
REMARK   40  A    between atoms: _96  and  _97
REMARK   41  A    between atoms: _100  and  _102
REMARK   42  A    between atoms: _102  and  _103
REMARK   43  A    between atoms: _106  and  _108
REMARK   44  A    between atoms: _108  and  _109
REMARK   45  A    between atoms: _108  and  _111
REMARK   46  A    between atoms: _111  and  _112
REMARK   47  A    between atoms: _118  and  _120
REMARK   48  A    between atoms: _120  and  _121
REMARK   49  A    between atoms: _120  and  _123
REMARK   50  A    between atoms: _123  and  _124
REMARK   51  A    between atoms: _127  and  _129
REMARK   52  A    between atoms: _129  and  _130
REMARK   53  A    between atoms: _129  and  _132
REMARK   54  A    between atoms: _132  and  _133
REMARK   55  A    between atoms: _138  and  _139
REMARK   56  A    between atoms: _142  and  _143
REMARK   57  A    between atoms: _148  and  _150
REMARK   58  A    between atoms: _150  and  _151
REMARK   59  A    between atoms: _150  and  _153
REMARK   60  A    between atoms: _153  and  _154
REMARK   61  A    between atoms: _159  and  _161
REMARK   62  A    between atoms: _161  and  _162
REMARK   63  A    between atoms: _161  and  _164
REMARK   64  A    between atoms: _164  and  _165
REMARK   65  A    between atoms: _168  and  _170
REMARK   66  A    between atoms: _170  and  _171
REMARK   67  A    between atoms: _170  and  _173
REMARK   68  A    between atoms: _173  and  _174
REMARK   69  A    between atoms: _179  and  _181
REMARK   70  A    between atoms: _181  and  _182
REMARK   71  A    between atoms: _181  and  _184
REMARK   72  A    between atoms: _184  and  _185
REMARK   73  A    between atoms: _191  and  _193
REMARK   74  A    between atoms: _193  and  _194
REMARK   75  A    between atoms: _193  and  _196
REMARK   76  A    between atoms: _196  and  _197
REMARK   77  A    between atoms: _203  and  _205
REMARK   78  A    between atoms: _205  and  _206
REMARK   79  A    between atoms: _205  and  _208
REMARK   80  A    between atoms: _208  and  _209
REMARK   81  A    between atoms: _209  and  _210
REMARK   82  A    between atoms: _213  and  _215
REMARK   83  A    between atoms: _215  and  _216
REMARK   84  A    between atoms: _215  and  _218
REMARK   85  A    between atoms: _218  and  _219
REMARK   86  A    between atoms: _219  and  _220
REMARK   87  A    between atoms: _220  and  _221
REMARK   88  A    between atoms: _230  and  _232
REMARK   89  A    between atoms: _232  and  _233
REMARK   90  A    between atoms: _232  and  _235
REMARK   91  A    between atoms: _235  and  _236
REMARK   92  A    between atoms: _236  and  _237
REMARK   93  A    between atoms: _240  and  _242
REMARK   94  A    between atoms: _242  and  _243
REMARK   95  A    between atoms: _242  and  _245
REMARK   96  A    between atoms: _245  and  _246
REMARK   97  A    between atoms: _251  and  _253
REMARK   98  A    between atoms: _253  and  _254
REMARK   99  A    between atoms: _253  and  _256
REMARK  100  A    between atoms: _256  and  _257
REMARK  101  A    between atoms: _260  and  _262
REMARK  102  A    between atoms: _262  and  _263
REMARK  103  A    between atoms: _262  and  _265
REMARK  104  A    between atoms: _265  and  _266
REMARK  105  A    between atoms: _269  and  _271
REMARK  106  A    between atoms: _271  and  _272
REMARK  107  A    between atoms: _271  and  _274
REMARK  108  A    between atoms: _274  and  _275
REMARK  109  A    between atoms: _280  and  _282
REMARK  110  A    between atoms: _282  and  _283
REMARK  111  A    between atoms: _282  and  _285
REMARK  112  A    between atoms: _285  and  _286
REMARK  113  A    between atoms: _289  and  _291
REMARK  114  A    between atoms: _291  and  _292
REMARK  115  A    between atoms: _291  and  _294
REMARK  116  A    between atoms: _294  and  _295
REMARK  117  A    between atoms: _300  and  _302
REMARK  118  A    between atoms: _302  and  _303
REMARK  119  A    between atoms: _302  and  _305
REMARK  120  A    between atoms: _305  and  _306
REMARK  121  A    between atoms: _311  and  _313
REMARK  122  A    between atoms: _313  and  _314
REMARK  123  A    between atoms: _313  and  _316
REMARK  124  A    between atoms: _316  and  _317
REMARK  125  A    between atoms: _320  and  _322
REMARK  126  A    between atoms: _322  and  _323
REMARK  127  A    between atoms: _322  and  _325
REMARK  128  A    between atoms: _328  and  _330
REMARK  129  A    between atoms: _330  and  _331
REMARK  130  A    between atoms: _330  and  _333
REMARK  131  A    between atoms: _333  and  _334
REMARK  132  A    between atoms: _337  and  _339
REMARK  133  A    between atoms: _339  and  _340
REMARK  134  A    between atoms: _343  and  _345
REMARK  135  A    between atoms: _345  and  _346
REMARK  136  A    between atoms: _345  and  _348
REMARK  137  A    between atoms: _348  and  _349
REMARK  138  A    between atoms: _352  and  _354
REMARK  139  A    between atoms: _354  and  _355
REMARK  140  A    between atoms: _354  and  _357
REMARK  141  A    between atoms: _357  and  _358
REMARK  142  A    between atoms: _358  and  _359
REMARK  143  A    between atoms: _362  and  _364
REMARK  144  A    between atoms: _364  and  _365
REMARK  145  A    between atoms: _364  and  _367
REMARK  146  A    between atoms: _367  and  _368
REMARK  147  A    between atoms: _373  and  _375
REMARK  148  A    between atoms: _375  and  _376
REMARK  149  A    between atoms: _378  and  _380
REMARK  150  A    between atoms: _380  and  _381
REMARK  151  A    between atoms: _380  and  _383
REMARK  152  A    between atoms: _386  and  _388
REMARK  153  A    between atoms: _388  and  _389
REMARK  154  A    between atoms: _392  and  _394
REMARK  155  A    between atoms: _394  and  _395
REMARK  156  A    between atoms: _394  and  _397
REMARK  157  A    between atoms: _397  and  _398
REMARK  158  A    between atoms: _403  and  _405
REMARK  159  A    between atoms: _405  and  _406
REMARK  160  A    between atoms: _405  and  _408
REMARK  161  A    between atoms: _408  and  _409
REMARK  162  A    between atoms: _409  and  _410
REMARK  163  A    between atoms: _410  and  _411
REMARK  164  A    between atoms: _411  and  _412
REMARK  165  A    between atoms: _416  and  _418
REMARK  166  A    between atoms: _418  and  _419
REMARK  167  A    between atoms: _418  and  _421
REMARK  168  A    between atoms: _421  and  _422
REMARK  169  A    between atoms: _425  and  _427
REMARK  170  A    between atoms: _427  and  _428
REMARK  171  A    between atoms: _427  and  _430
REMARK  172  A    between atoms: _430  and  _431
REMARK  173  A    between atoms: _436  and  _438
REMARK  174  A    between atoms: _438  and  _439
REMARK  175  A    between atoms: _441  and  _443
REMARK  176  A    between atoms: _443  and  _444
REMARK  177  A    between atoms: _443  and  _446
REMARK  178  A    between atoms: _446  and  _447
REMARK  179  A    between atoms: _447  and  _448
REMARK  180  A    between atoms: _448  and  _449
REMARK  181  A    between atoms: _449  and  _450
REMARK  182  A    between atoms: _454  and  _456
REMARK  183  A    between atoms: _456  and  _457
REMARK  184  A    between atoms: _456  and  _459
REMARK  185  A    between atoms: _459  and  _460
REMARK  186  A    between atoms: _460  and  _461
REMARK  187  A    between atoms: _461  and  _462
REMARK  188  A    between atoms: _471  and  _473
REMARK  189  A    between atoms: _473  and  _474
REMARK  190  A    between atoms: _473  and  _476
REMARK  191  A    between atoms: _476  and  _477
REMARK  192  A    between atoms: _482  and  _484
REMARK  193  A    between atoms: _484  and  _485
REMARK  194  A    between atoms: _484  and  _487
REMARK  195  A    between atoms: _487  and  _488
REMARK  196  A    between atoms: _493  and  _494
REMARK  197  A    between atoms: _496  and  _498
REMARK  198  A    between atoms: _498  and  _499
REMARK  199  A    between atoms: _498  and  _501
REMARK  200  A    between atoms: _501  and  _502
REMARK  201  A    between atoms: _502  and  _503
REMARK  202  A    between atoms: _503  and  _504
REMARK  203  A    between atoms: _504  and  _505
REMARK  204  A    between atoms: _509  and  _511
REMARK  205  A    between atoms: _511  and  _512
REMARK  206  A    between atoms: _511  and  _514
REMARK  207  A    between atoms: _514  and  _515
REMARK  208  A    between atoms: _517  and  _519
REMARK  209  A    between atoms: _519  and  _520
REMARK  210  A    between atoms: _519  and  _522
REMARK  211  A    between atoms: _522  and  _523
REMARK  212  A    between atoms: _526  and  _528
REMARK  213  A    between atoms: _528  and  _529
REMARK  214  A    between atoms: _528  and  _531
REMARK  215  A    between atoms: _531  and  _532
REMARK  216  A    between atoms: _532  and  _533
REMARK  217  A    between atoms: _536  and  _538
REMARK  218  A    between atoms: _538  and  _539
REMARK  219  A    between atoms: _542  and  _544
REMARK  220  A    between atoms: _544  and  _545
REMARK  221  A    between atoms: _544  and  _547
REMARK  222  A    between atoms: _547  and  _548
REMARK  223  A    between atoms: _550  and  _552
REMARK  224  A    between atoms: _552  and  _553
REMARK  225  A    between atoms: _555  and  _557
REMARK  226  A    between atoms: _557  and  _558
REMARK  227  A    between atoms: _557  and  _560
REMARK  228  A    between atoms: _560  and  _561
REMARK  229  A    between atoms: _564  and  _566
REMARK  230  A    between atoms: _566  and  _567
REMARK  231  A    between atoms: _569  and  _571
REMARK  232  A    between atoms: _571  and  _572
REMARK  233  A    between atoms: _571  and  _574
REMARK  234  A    between atoms: _574  and  _575
REMARK  235  A    between atoms: _580  and  _582
REMARK  236  A    between atoms: _582  and  _583
REMARK  237  A    between atoms: _582  and  _585
REMARK  238  A    between atoms: _585  and  _586
REMARK  239  A    between atoms: _586  and  _587
REMARK  240  A    between atoms: _594  and  _595
REMARK  241  A    between atoms: _595  and  _611
REMARK  242  A    between atoms: _596  and  _598
REMARK  243  A    between atoms: _598  and  _599
REMARK  244  A    between atoms: _599  and  _600
REMARK  245  A    between atoms: _604  and  _606
REMARK  246  A    between atoms: _606  and  _607
REMARK  247  A    between atoms: _606  and  _614
REMARK  248  A    between atoms: _607  and  _608
REMARK  249  A    between atoms: _608  and  _609
REMARK  250  A    between atoms: _609  and  _610
REMARK  251  A    between atoms: _610  and  _611
REMARK  252  A    between atoms: _616  and  _618
REMARK  253  A    between atoms: _618  and  _619
REMARK  254  A    between atoms: _618  and  _621
REMARK  255  A    between atoms: _621  and  _622
REMARK  256  A    between atoms: _625  and  _627
REMARK  257  A    between atoms: _627  and  _628
REMARK  258  A    between atoms: _630  and  _632
REMARK  259  A    between atoms: _632  and  _633
REMARK  260  A    between atoms: _636  and  _638
REMARK  261  A    between atoms: _638  and  _639
REMARK  262  A    between atoms: _638  and  _641
REMARK  263  A    between atoms: _641  and  _642
REMARK  264  A    between atoms: _647  and  _648
REMARK                            x       y       z     vdW  Elec       q    Type
REMARK                         _______ _______ _______ _____ _____    ______ ____
ROOT
ATOM      1  O   HOH     1      31.041  25.601  30.757  0.00  0.00    +0.000 OA
ENDROOT
TORSDOF 0
REMARK  Name = ../refined-set-2016/2qrq/2qrq_pocket.pdb
REMARK  264 active torsions:
REMARK  status: ('A' for Active; 'I' for Inactive)
REMARK    1  A    between atoms: _1  and  _3
REMARK    2  A    between atoms: _3  and  _4
REMARK    3  A    between atoms: _3  and  _6
REMARK    4  A    between atoms: _6  and  _7
REMARK    5  A    between atoms: _12  and  _13
REMARK    6  A    between atoms: _15  and  _17
REMARK    7  A    between atoms: _17  and  _18
REMARK    8  A    between atoms: _17  and  _20
REMARK    9  A    between atoms: _20  and  _21
REMARK   10  A    between atoms: _24  and  _26
REMARK   11  A    between atoms: _26  and  _27
REMARK   12  A    between atoms: _26  and  _29
REMARK   13  A    between atoms: _29  and  _30
REMARK   14  A    between atoms: _30  and  _31
REMARK   15  A    between atoms: _34  and  _36
REMARK   16  A    between atoms: _36  and  _37
REMARK   17  A    between atoms: _39  and  _41
REMARK   18  A    between atoms: _41  and  _42
REMARK   19  A    between atoms: _41  and  _44
REMARK   20  A    between atoms: _44  and  _45
REMARK   21  A    between atoms: _50  and  _52
REMARK   22  A    between atoms: _52  and  _53
REMARK   23  A    between atoms: _55  and  _57
REMARK   24  A    between atoms: _57  and  _58
REMARK   25  A    between atoms: _60  and  _62
REMARK   26  A    between atoms: _62  and  _63
REMARK   27  A    between atoms: _62  and  _65
REMARK   28  A    between atoms: _65  and  _66
REMARK   29  A    between atoms: _69  and  _71
REMARK   30  A    between atoms: _71  and  _72
REMARK   31  A    between atoms: _74  and  _76
REMARK   32  A    between atoms: _76  and  _77
REMARK   33  A    between atoms: _76  and  _79
REMARK   34  A    between atoms: _79  and  _80
REMARK   35  A    between atoms: _80  and  _81
REMARK   36  A    between atoms: _81  and  _82
REMARK   37  A    between atoms: _91  and  _93
REMARK   38  A    between atoms: _93  and  _94
REMARK   39  A    between atoms: _93  and  _96
REMARK   40  A    between atoms: _96  and  _97
REMARK   41  A    between atoms: _100  and  _102
REMARK   42  A    between atoms: _102  and  _103
REMARK   43  A    between atoms: _106  and  _108
REMARK   44  A    between atoms: _108  and  _109
REMARK   45  A    between atoms: _108  and  _111
REMARK   46  A    between atoms: _111  and  _112
REMARK   47  A    between atoms: _118  and  _120
REMARK   48  A    between atoms: _120  and  _121
REMARK   49  A    between atoms: _120  and  _123
REMARK   50  A    between atoms: _123  and  _124
REMARK   51  A    between atoms: _127  and  _129
REMARK   52  A    between atoms: _129  and  _130
REMARK   53  A    between atoms: _129  and  _132
REMARK   54  A    between atoms: _132  and  _133
REMARK   55  A    between atoms: _138  and  _139
REMARK   56  A    between atoms: _142  and  _143
REMARK   57  A    between atoms: _148  and  _150
REMARK   58  A    between atoms: _150  and  _151
REMARK   59  A    between atoms: _150  and  _153
REMARK   60  A    between atoms: _153  and  _154
REMARK   61  A    between atoms: _159  and  _161
REMARK   62  A    between atoms: _161  and  _162
REMARK   63  A    between atoms: _161  and  _164
REMARK   64  A    between atoms: _164  and  _165
REMARK   65  A    between atoms: _168  and  _170
REMARK   66  A    between atoms: _170  and  _171
REMARK   67  A    between atoms: _170  and  _173
REMARK   68  A    between atoms: _173  and  _174
REMARK   69  A    between atoms: _179  and  _181
REMARK   70  A    between atoms: _181  and  _182
REMARK   71  A    between atoms: _181  and  _184
REMARK   72  A    between atoms: _184  and  _185
REMARK   73  A    between atoms: _191  and  _193
REMARK   74  A    between atoms: _193  and  _194
REMARK   75  A    between atoms: _193  and  _196
REMARK   76  A    between atoms: _196  and  _197
REMARK   77  A    between atoms: _203  and  _205
REMARK   78  A    between atoms: _205  and  _206
REMARK   79  A    between atoms: _205  and  _208
REMARK   80  A    between atoms: _208  and  _209
REMARK   81  A    between atoms: _209  and  _210
REMARK   82  A    between atoms: _213  and  _215
REMARK   83  A    between atoms: _215  and  _216
REMARK   84  A    between atoms: _215  and  _218
REMARK   85  A    between atoms: _218  and  _219
REMARK   86  A    between atoms: _219  and  _220
REMARK   87  A    between atoms: _220  and  _221
REMARK   88  A    between atoms: _230  and  _232
REMARK   89  A    between atoms: _232  and  _233
REMARK   90  A    between atoms: _232  and  _235
REMARK   91  A    between atoms: _235  and  _236
REMARK   92  A    between atoms: _236  and  _237
REMARK   93  A    between atoms: _240  and  _242
REMARK   94  A    between atoms: _242  and  _243
REMARK   95  A    between atoms: _242  and  _245
REMARK   96  A    between atoms: _245  and  _246
REMARK   97  A    between atoms: _251  and  _253
REMARK   98  A    between atoms: _253  and  _254
REMARK   99  A    between atoms: _253  and  _256
REMARK  100  A    between atoms: _256  and  _257
REMARK  101  A    between atoms: _260  and  _262
REMARK  102  A    between atoms: _262  and  _263
REMARK  103  A    between atoms: _262  and  _265
REMARK  104  A    between atoms: _265  and  _266
REMARK  105  A    between atoms: _269  and  _271
REMARK  106  A    between atoms: _271  and  _272
REMARK  107  A    between atoms: _271  and  _274
REMARK  108  A    between atoms: _274  and  _275
REMARK  109  A    between atoms: _280  and  _282
REMARK  110  A    between atoms: _282  and  _283
REMARK  111  A    between atoms: _282  and  _285
REMARK  112  A    between atoms: _285  and  _286
REMARK  113  A    between atoms: _289  and  _291
REMARK  114  A    between atoms: _291  and  _292
REMARK  115  A    between atoms: _291  and  _294
REMARK  116  A    between atoms: _294  and  _295
REMARK  117  A    between atoms: _300  and  _302
REMARK  118  A    between atoms: _302  and  _303
REMARK  119  A    between atoms: _302  and  _305
REMARK  120  A    between atoms: _305  and  _306
REMARK  121  A    between atoms: _311  and  _313
REMARK  122  A    between atoms: _313  and  _314
REMARK  123  A    between atoms: _313  and  _316
REMARK  124  A    between atoms: _316  and  _317
REMARK  125  A    between atoms: _320  and  _322
REMARK  126  A    between atoms: _322  and  _323
REMARK  127  A    between atoms: _322  and  _325
REMARK  128  A    between atoms: _328  and  _330
REMARK  129  A    between atoms: _330  and  _331
REMARK  130  A    between atoms: _330  and  _333
REMARK  131  A    between atoms: _333  and  _334
REMARK  132  A    between atoms: _337  and  _339
REMARK  133  A    between atoms: _339  and  _340
REMARK  134  A    between atoms: _343  and  _345
REMARK  135  A    between atoms: _345  and  _346
REMARK  136  A    between atoms: _345  and  _348
REMARK  137  A    between atoms: _348  and  _349
REMARK  138  A    between atoms: _352  and  _354
REMARK  139  A    between atoms: _354  and  _355
REMARK  140  A    between atoms: _354  and  _357
REMARK  141  A    between atoms: _357  and  _358
REMARK  142  A    between atoms: _358  and  _359
REMARK  143  A    between atoms: _362  and  _364
REMARK  144  A    between atoms: _364  and  _365
REMARK  145  A    between atoms: _364  and  _367
REMARK  146  A    between atoms: _367  and  _368
REMARK  147  A    between atoms: _373  and  _375
REMARK  148  A    between atoms: _375  and  _376
REMARK  149  A    between atoms: _378  and  _380
REMARK  150  A    between atoms: _380  and  _381
REMARK  151  A    between atoms: _380  and  _383
REMARK  152  A    between atoms: _386  and  _388
REMARK  153  A    between atoms: _388  and  _389
REMARK  154  A    between atoms: _392  and  _394
REMARK  155  A    between atoms: _394  and  _395
REMARK  156  A    between atoms: _394  and  _397
REMARK  157  A    between atoms: _397  and  _398
REMARK  158  A    between atoms: _403  and  _405
REMARK  159  A    between atoms: _405  and  _406
REMARK  160  A    between atoms: _405  and  _408
REMARK  161  A    between atoms: _408  and  _409
REMARK  162  A    between atoms: _409  and  _410
REMARK  163  A    between atoms: _410  and  _411
REMARK  164  A    between atoms: _411  and  _412
REMARK  165  A    between atoms: _416  and  _418
REMARK  166  A    between atoms: _418  and  _419
REMARK  167  A    between atoms: _418  and  _421
REMARK  168  A    between atoms: _421  and  _422
REMARK  169  A    between atoms: _425  and  _427
REMARK  170  A    between atoms: _427  and  _428
REMARK  171  A    between atoms: _427  and  _430
REMARK  172  A    between atoms: _430  and  _431
REMARK  173  A    between atoms: _436  and  _438
REMARK  174  A    between atoms: _438  and  _439
REMARK  175  A    between atoms: _441  and  _443
REMARK  176  A    between atoms: _443  and  _444
REMARK  177  A    between atoms: _443  and  _446
REMARK  178  A    between atoms: _446  and  _447
REMARK  179  A    between atoms: _447  and  _448
REMARK  180  A    between atoms: _448  and  _449
REMARK  181  A    between atoms: _449  and  _450
REMARK  182  A    between atoms: _454  and  _456
REMARK  183  A    between atoms: _456  and  _457
REMARK  184  A    between atoms: _456  and  _459
REMARK  185  A    between atoms: _459  and  _460
REMARK  186  A    between atoms: _460  and  _461
REMARK  187  A    between atoms: _461  and  _462
REMARK  188  A    between atoms: _471  and  _473
REMARK  189  A    between atoms: _473  and  _474
REMARK  190  A    between atoms: _473  and  _476
REMARK  191  A    between atoms: _476  and  _477
REMARK  192  A    between atoms: _482  and  _484
REMARK  193  A    between atoms: _484  and  _485
REMARK  194  A    between atoms: _484  and  _487
REMARK  195  A    between atoms: _487  and  _488
REMARK  196  A    between atoms: _493  and  _494
REMARK  197  A    between atoms: _496  and  _498
REMARK  198  A    between atoms: _498  and  _499
REMARK  199  A    between atoms: _498  and  _501
REMARK  200  A    between atoms: _501  and  _502
REMARK  201  A    between atoms: _502  and  _503
REMARK  202  A    between atoms: _503  and  _504
REMARK  203  A    between atoms: _504  and  _505
REMARK  204  A    between atoms: _509  and  _511
REMARK  205  A    between atoms: _511  and  _512
REMARK  206  A    between atoms: _511  and  _514
REMARK  207  A    between atoms: _514  and  _515
REMARK  208  A    between atoms: _517  and  _519
REMARK  209  A    between atoms: _519  and  _520
REMARK  210  A    between atoms: _519  and  _522
REMARK  211  A    between atoms: _522  and  _523
REMARK  212  A    between atoms: _526  and  _528
REMARK  213  A    between atoms: _528  and  _529
REMARK  214  A    between atoms: _528  and  _531
REMARK  215  A    between atoms: _531  and  _532
REMARK  216  A    between atoms: _532  and  _533
REMARK  217  A    between atoms: _536  and  _538
REMARK  218  A    between atoms: _538  and  _539
REMARK  219  A    between atoms: _542  and  _544
REMARK  220  A    between atoms: _544  and  _545
REMARK  221  A    between atoms: _544  and  _547
REMARK  222  A    between atoms: _547  and  _548
REMARK  223  A    between atoms: _550  and  _552
REMARK  224  A    between atoms: _552  and  _553
REMARK  225  A    between atoms: _555  and  _557
REMARK  226  A    between atoms: _557  and  _558
REMARK  227  A    between atoms: _557  and  _560
REMARK  228  A    between atoms: _560  and  _561
REMARK  229  A    between atoms: _564  and  _566
REMARK  230  A    between atoms: _566  and  _567
REMARK  231  A    between atoms: _569  and  _571
REMARK  232  A    between atoms: _571  and  _572
REMARK  233  A    between atoms: _571  and  _574
REMARK  234  A    between atoms: _574  and  _575
REMARK  235  A    between atoms: _580  and  _582
REMARK  236  A    between atoms: _582  and  _583
REMARK  237  A    between atoms: _582  and  _585
REMARK  238  A    between atoms: _585  and  _586
REMARK  239  A    between atoms: _586  and  _587
REMARK  240  A    between atoms: _594  and  _595
REMARK  241  A    between atoms: _595  and  _611
REMARK  242  A    between atoms: _596  and  _598
REMARK  243  A    between atoms: _598  and  _599
REMARK  244  A    between atoms: _599  and  _600
REMARK  245  A    between atoms: _604  and  _606
REMARK  246  A    between atoms: _606  and  _607
REMARK  247  A    between atoms: _606  and  _614
REMARK  248  A    between atoms: _607  and  _608
REMARK  249  A    between atoms: _608  and  _609
REMARK  250  A    between atoms: _609  and  _610
REMARK  251  A    between atoms: _610  and  _611
REMARK  252  A    between atoms: _616  and  _618
REMARK  253  A    between atoms: _618  and  _619
REMARK  254  A    between atoms: _618  and  _621
REMARK  255  A    between atoms: _621  and  _622
REMARK  256  A    between atoms: _625  and  _627
REMARK  257  A    between atoms: _627  and  _628
REMARK  258  A    between atoms: _630  and  _632
REMARK  259  A    between atoms: _632  and  _633
REMARK  260  A    between atoms: _636  and  _638
REMARK  261  A    between atoms: _638  and  _639
REMARK  262  A    between atoms: _638  and  _641
REMARK  263  A    between atoms: _641  and  _642
REMARK  264  A    between atoms: _647  and  _648
REMARK                            x       y       z     vdW  Elec       q    Type
REMARK                         _______ _______ _______ _____ _____    ______ ____
ROOT
ATOM      1  O   HOH     1      40.333  26.797  33.815  0.00  0.00    +0.000 OA
ENDROOT
TORSDOF 0
REMARK  Name = ../refined-set-2016/2qrq/2qrq_pocket.pdb
REMARK  264 active torsions:
REMARK  status: ('A' for Active; 'I' for Inactive)
REMARK    1  A    between atoms: _1  and  _3
REMARK    2  A    between atoms: _3  and  _4
REMARK    3  A    between atoms: _3  and  _6
REMARK    4  A    between atoms: _6  and  _7
REMARK    5  A    between atoms: _12  and  _13
REMARK    6  A    between atoms: _15  and  _17
REMARK    7  A    between atoms: _17  and  _18
REMARK    8  A    between atoms: _17  and  _20
REMARK    9  A    between atoms: _20  and  _21
REMARK   10  A    between atoms: _24  and  _26
REMARK   11  A    between atoms: _26  and  _27
REMARK   12  A    between atoms: _26  and  _29
REMARK   13  A    between atoms: _29  and  _30
REMARK   14  A    between atoms: _30  and  _31
REMARK   15  A    between atoms: _34  and  _36
REMARK   16  A    between atoms: _36  and  _37
REMARK   17  A    between atoms: _39  and  _41
REMARK   18  A    between atoms: _41  and  _42
REMARK   19  A    between atoms: _41  and  _44
REMARK   20  A    between atoms: _44  and  _45
REMARK   21  A    between atoms: _50  and  _52
REMARK   22  A    between atoms: _52  and  _53
REMARK   23  A    between atoms: _55  and  _57
REMARK   24  A    between atoms: _57  and  _58
REMARK   25  A    between atoms: _60  and  _62
REMARK   26  A    between atoms: _62  and  _63
REMARK   27  A    between atoms: _62  and  _65
REMARK   28  A    between atoms: _65  and  _66
REMARK   29  A    between atoms: _69  and  _71
REMARK   30  A    between atoms: _71  and  _72
REMARK   31  A    between atoms: _74  and  _76
REMARK   32  A    between atoms: _76  and  _77
REMARK   33  A    between atoms: _76  and  _79
REMARK   34  A    between atoms: _79  and  _80
REMARK   35  A    between atoms: _80  and  _81
REMARK   36  A    between atoms: _81  and  _82
REMARK   37  A    between atoms: _91  and  _93
REMARK   38  A    between atoms: _93  and  _94
REMARK   39  A    between atoms: _93  and  _96
REMARK   40  A    between atoms: _96  and  _97
REMARK   41  A    between atoms: _100  and  _102
REMARK   42  A    between atoms: _102  and  _103
REMARK   43  A    between atoms: _106  and  _108
REMARK   44  A    between atoms: _108  and  _109
REMARK   45  A    between atoms: _108  and  _111
REMARK   46  A    between atoms: _111  and  _112
REMARK   47  A    between atoms: _118  and  _120
REMARK   48  A    between atoms: _120  and  _121
REMARK   49  A    between atoms: _120  and  _123
REMARK   50  A    between atoms: _123  and  _124
REMARK   51  A    between atoms: _127  and  _129
REMARK   52  A    between atoms: _129  and  _130
REMARK   53  A    between atoms: _129  and  _132
REMARK   54  A    between atoms: _132  and  _133
REMARK   55  A    between atoms: _138  and  _139
REMARK   56  A    between atoms: _142  and  _143
REMARK   57  A    between atoms: _148  and  _150
REMARK   58  A    between atoms: _150  and  _151
REMARK   59  A    between atoms: _150  and  _153
REMARK   60  A    between atoms: _153  and  _154
REMARK   61  A    between atoms: _159  and  _161
REMARK   62  A    between atoms: _161  and  _162
REMARK   63  A    between atoms: _161  and  _164
REMARK   64  A    between atoms: _164  and  _165
REMARK   65  A    between atoms: _168  and  _170
REMARK   66  A    between atoms: _170  and  _171
REMARK   67  A    between atoms: _170  and  _173
REMARK   68  A    between atoms: _173  and  _174
REMARK   69  A    between atoms: _179  and  _181
REMARK   70  A    between atoms: _181  and  _182
REMARK   71  A    between atoms: _181  and  _184
REMARK   72  A    between atoms: _184  and  _185
REMARK   73  A    between atoms: _191  and  _193
REMARK   74  A    between atoms: _193  and  _194
REMARK   75  A    between atoms: _193  and  _196
REMARK   76  A    between atoms: _196  and  _197
REMARK   77  A    between atoms: _203  and  _205
REMARK   78  A    between atoms: _205  and  _206
REMARK   79  A    between atoms: _205  and  _208
REMARK   80  A    between atoms: _208  and  _209
REMARK   81  A    between atoms: _209  and  _210
REMARK   82  A    between atoms: _213  and  _215
REMARK   83  A    between atoms: _215  and  _216
REMARK   84  A    between atoms: _215  and  _218
REMARK   85  A    between atoms: _218  and  _219
REMARK   86  A    between atoms: _219  and  _220
REMARK   87  A    between atoms: _220  and  _221
REMARK   88  A    between atoms: _230  and  _232
REMARK   89  A    between atoms: _232  and  _233
REMARK   90  A    between atoms: _232  and  _235
REMARK   91  A    between atoms: _235  and  _236
REMARK   92  A    between atoms: _236  and  _237
REMARK   93  A    between atoms: _240  and  _242
REMARK   94  A    between atoms: _242  and  _243
REMARK   95  A    between atoms: _242  and  _245
REMARK   96  A    between atoms: _245  and  _246
REMARK   97  A    between atoms: _251  and  _253
REMARK   98  A    between atoms: _253  and  _254
REMARK   99  A    between atoms: _253  and  _256
REMARK  100  A    between atoms: _256  and  _257
REMARK  101  A    between atoms: _260  and  _262
REMARK  102  A    between atoms: _262  and  _263
REMARK  103  A    between atoms: _262  and  _265
REMARK  104  A    between atoms: _265  and  _266
REMARK  105  A    between atoms: _269  and  _271
REMARK  106  A    between atoms: _271  and  _272
REMARK  107  A    between atoms: _271  and  _274
REMARK  108  A    between atoms: _274  and  _275
REMARK  109  A    between atoms: _280  and  _282
REMARK  110  A    between atoms: _282  and  _283
REMARK  111  A    between atoms: _282  and  _285
REMARK  112  A    between atoms: _285  and  _286
REMARK  113  A    between atoms: _289  and  _291
REMARK  114  A    between atoms: _291  and  _292
REMARK  115  A    between atoms: _291  and  _294
REMARK  116  A    between atoms: _294  and  _295
REMARK  117  A    between atoms: _300  and  _302
REMARK  118  A    between atoms: _302  and  _303
REMARK  119  A    between atoms: _302  and  _305
REMARK  120  A    between atoms: _305  and  _306
REMARK  121  A    between atoms: _311  and  _313
REMARK  122  A    between atoms: _313  and  _314
REMARK  123  A    between atoms: _313  and  _316
REMARK  124  A    between atoms: _316  and  _317
REMARK  125  A    between atoms: _320  and  _322
REMARK  126  A    between atoms: _322  and  _323
REMARK  127  A    between atoms: _322  and  _325
REMARK  128  A    between atoms: _328  and  _330
REMARK  129  A    between atoms: _330  and  _331
REMARK  130  A    between atoms: _330  and  _333
REMARK  131  A    between atoms: _333  and  _334
REMARK  132  A    between atoms: _337  and  _339
REMARK  133  A    between atoms: _339  and  _340
REMARK  134  A    between atoms: _343  and  _345
REMARK  135  A    between atoms: _345  and  _346
REMARK  136  A    between atoms: _345  and  _348
REMARK  137  A    between atoms: _348  and  _349
REMARK  138  A    between atoms: _352  and  _354
REMARK  139  A    between atoms: _354  and  _355
REMARK  140  A    between atoms: _354  and  _357
REMARK  141  A    between atoms: _357  and  _358
REMARK  142  A    between atoms: _358  and  _359
REMARK  143  A    between atoms: _362  and  _364
REMARK  144  A    between atoms: _364  and  _365
REMARK  145  A    between atoms: _364  and  _367
REMARK  146  A    between atoms: _367  and  _368
REMARK  147  A    between atoms: _373  and  _375
REMARK  148  A    between atoms: _375  and  _376
REMARK  149  A    between atoms: _378  and  _380
REMARK  150  A    between atoms: _380  and  _381
REMARK  151  A    between atoms: _380  and  _383
REMARK  152  A    between atoms: _386  and  _388
REMARK  153  A    between atoms: _388  and  _389
REMARK  154  A    between atoms: _392  and  _394
REMARK  155  A    between atoms: _394  and  _395
REMARK  156  A    between atoms: _394  and  _397
REMARK  157  A    between atoms: _397  and  _398
REMARK  158  A    between atoms: _403  and  _405
REMARK  159  A    between atoms: _405  and  _406
REMARK  160  A    between atoms: _405  and  _408
REMARK  161  A    between atoms: _408  and  _409
REMARK  162  A    between atoms: _409  and  _410
REMARK  163  A    between atoms: _410  and  _411
REMARK  164  A    between atoms: _411  and  _412
REMARK  165  A    between atoms: _416  and  _418
REMARK  166  A    between atoms: _418  and  _419
REMARK  167  A    between atoms: _418  and  _421
REMARK  168  A    between atoms: _421  and  _422
REMARK  169  A    between atoms: _425  and  _427
REMARK  170  A    between atoms: _427  and  _428
REMARK  171  A    between atoms: _427  and  _430
REMARK  172  A    between atoms: _430  and  _431
REMARK  173  A    between atoms: _436  and  _438
REMARK  174  A    between atoms: _438  and  _439
REMARK  175  A    between atoms: _441  and  _443
REMARK  176  A    between atoms: _443  and  _444
REMARK  177  A    between atoms: _443  and  _446
REMARK  178  A    between atoms: _446  and  _447
REMARK  179  A    between atoms: _447  and  _448
REMARK  180  A    between atoms: _448  and  _449
REMARK  181  A    between atoms: _449  and  _450
REMARK  182  A    between atoms: _454  and  _456
REMARK  183  A    between atoms: _456  and  _457
REMARK  184  A    between atoms: _456  and  _459
REMARK  185  A    between atoms: _459  and  _460
REMARK  186  A    between atoms: _460  and  _461
REMARK  187  A    between atoms: _461  and  _462
REMARK  188  A    between atoms: _471  and  _473
REMARK  189  A    between atoms: _473  and  _474
REMARK  190  A    between atoms: _473  and  _476
REMARK  191  A    between atoms: _476  and  _477
REMARK  192  A    between atoms: _482  and  _484
REMARK  193  A    between atoms: _484  and  _485
REMARK  194  A    between atoms: _484  and  _487
REMARK  195  A    between atoms: _487  and  _488
REMARK  196  A    between atoms: _493  and  _494
REMARK  197  A    between atoms: _496  and  _498
REMARK  198  A    between atoms: _498  and  _499
REMARK  199  A    between atoms: _498  and  _501
REMARK  200  A    between atoms: _501  and  _502
REMARK  201  A    between atoms: _502  and  _503
REMARK  202  A    between atoms: _503  and  _504
REMARK  203  A    between atoms: _504  and  _505
REMARK  204  A    between atoms: _509  and  _511
REMARK  205  A    between atoms: _511  and  _512
REMARK  206  A    between atoms: _511  and  _514
REMARK  207  A    between atoms: _514  and  _515
REMARK  208  A    between atoms: _517  and  _519
REMARK  209  A    between atoms: _519  and  _520
REMARK  210  A    between atoms: _519  and  _522
REMARK  211  A    between atoms: _522  and  _523
REMARK  212  A    between atoms: _526  and  _528
REMARK  213  A    between atoms: _528  and  _529
REMARK  214  A    between atoms: _528  and  _531
REMARK  215  A    between atoms: _531  and  _532
REMARK  216  A    between atoms: _532  and  _533
REMARK  217  A    between atoms: _536  and  _538
REMARK  218  A    between atoms: _538  and  _539
REMARK  219  A    between atoms: _542  and  _544
REMARK  220  A    between atoms: _544  and  _545
REMARK  221  A    between atoms: _544  and  _547
REMARK  222  A    between atoms: _547  and  _548
REMARK  223  A    between atoms: _550  and  _552
REMARK  224  A    between atoms: _552  and  _553
REMARK  225  A    between atoms: _555  and  _557
REMARK  226  A    between atoms: _557  and  _558
REMARK  227  A    between atoms: _557  and  _560
REMARK  228  A    between atoms: _560  and  _561
REMARK  229  A    between atoms: _564  and  _566
REMARK  230  A    between atoms: _566  and  _567
REMARK  231  A    between atoms: _569  and  _571
REMARK  232  A    between atoms: _571  and  _572
REMARK  233  A    between atoms: _571  and  _574
REMARK  234  A    between atoms: _574  and  _575
REMARK  235  A    between atoms: _580  and  _582
REMARK  236  A    between atoms: _582  and  _583
REMARK  237  A    between atoms: _582  and  _585
REMARK  238  A    between atoms: _585  and  _586
REMARK  239  A    between atoms: _586  and  _587
REMARK  240  A    between atoms: _594  and  _595
REMARK  241  A    between atoms: _595  and  _611
REMARK  242  A    between atoms: _596  and  _598
REMARK  243  A    between atoms: _598  and  _599
REMARK  244  A    between atoms: _599  and  _600
REMARK  245  A    between atoms: _604  and  _606
REMARK  246  A    between atoms: _606  and  _607
REMARK  247  A    between atoms: _606  and  _614
REMARK  248  A    between atoms: _607  and  _608
REMARK  249  A    between atoms: _608  and  _609
REMARK  250  A    between atoms: _609  and  _610
REMARK  251  A    between atoms: _610  and  _611
REMARK  252  A    between atoms: _616  and  _618
REMARK  253  A    between atoms: _618  and  _619
REMARK  254  A    between atoms: _618  and  _621
REMARK  255  A    between atoms: _621  and  _622
REMARK  256  A    between atoms: _625  and  _627
REMARK  257  A    between atoms: _627  and  _628
REMARK  258  A    between atoms: _630  and  _632
REMARK  259  A    between atoms: _632  and  _633
REMARK  260  A    between atoms: _636  and  _638
REMARK  261  A    between atoms: _638  and  _639
REMARK  262  A    between atoms: _638  and  _641
REMARK  263  A    between atoms: _641  and  _642
REMARK  264  A    between atoms: _647  and  _648
REMARK                            x       y       z     vdW  Elec       q    Type
REMARK                         _______ _______ _______ _____ _____    ______ ____
ROOT
ATOM      1  O   HOH     1      38.515  28.915  33.496  0.00  0.00    +0.000 OA
ENDROOT
TORSDOF 0
