REMARK  Name = ../refined-set-2016/1v2s/1v2s_pocket.pdb
REMARK  122 active torsions:
REMARK  status: ('A' for Active; 'I' for Inactive)
REMARK    1  A    between atoms: _1  and  _5
REMARK    2  A    between atoms: _5  and  _6
REMARK    3  A    between atoms: _5  and  _8
REMARK    4  A    between atoms: _8  and  _9
REMARK    5  A    between atoms: _12  and  _14
REMARK    6  A    between atoms: _14  and  _15
REMARK    7  A    between atoms: _14  and  _17
REMARK    8  A    between atoms: _20  and  _22
REMARK    9  A    between atoms: _22  and  _23
REMARK   10  A    between atoms: _22  and  _25
REMARK   11  A    between atoms: _25  and  _26
REMARK   12  A    between atoms: _31  and  _33
REMARK   13  A    between atoms: _33  and  _34
REMARK   14  A    between atoms: _33  and  _36
REMARK   15  A    between atoms: _36  and  _37
REMARK   16  A    between atoms: _40  and  _42
REMARK   17  A    between atoms: _42  and  _43
REMARK   18  A    between atoms: _42  and  _45
REMARK   19  A    between atoms: _45  and  _46
REMARK   20  A    between atoms: _49  and  _51
REMARK   21  A    between atoms: _51  and  _52
REMARK   22  A    between atoms: _51  and  _54
REMARK   23  A    between atoms: _54  and  _55
REMARK   24  A    between atoms: _60  and  _62
REMARK   25  A    between atoms: _62  and  _63
REMARK   26  A    between atoms: _62  and  _65
REMARK   27  A    between atoms: _65  and  _66
REMARK   28  A    between atoms: _71  and  _72
REMARK   29  A    between atoms: _74  and  _76
REMARK   30  A    between atoms: _76  and  _77
REMARK   31  A    between atoms: _80  and  _82
REMARK   32  A    between atoms: _82  and  _83
REMARK   33  A    between atoms: _82  and  _85
REMARK   34  A    between atoms: _85  and  _86
REMARK   35  A    between atoms: _86  and  _87
REMARK   36  A    between atoms: _87  and  _88
REMARK   37  A    between atoms: _88  and  _89
REMARK   38  A    between atoms: _93  and  _95
REMARK   39  A    between atoms: _95  and  _96
REMARK   40  A    between atoms: _95  and  _98
REMARK   41  A    between atoms: _98  and  _99
REMARK   42  A    between atoms: _102  and  _104
REMARK   43  A    between atoms: _104  and  _105
REMARK   44  A    between atoms: _104  and  _107
REMARK   45  A    between atoms: _107  and  _108
REMARK   46  A    between atoms: _110  and  _112
REMARK   47  A    between atoms: _112  and  _113
REMARK   48  A    between atoms: _112  and  _115
REMARK   49  A    between atoms: _115  and  _116
REMARK   50  A    between atoms: _116  and  _228
REMARK   51  A    between atoms: _117  and  _119
REMARK   52  A    between atoms: _119  and  _120
REMARK   53  A    between atoms: _119  and  _122
REMARK   54  A    between atoms: _122  and  _123
REMARK   55  A    between atoms: _123  and  _124
REMARK   56  A    between atoms: _129  and  _131
REMARK   57  A    between atoms: _131  and  _132
REMARK   58  A    between atoms: _134  and  _136
REMARK   59  A    between atoms: _136  and  _137
REMARK   60  A    between atoms: _136  and  _139
REMARK   61  A    between atoms: _139  and  _140
REMARK   62  A    between atoms: _143  and  _145
REMARK   63  A    between atoms: _145  and  _146
REMARK   64  A    between atoms: _145  and  _148
REMARK   65  A    between atoms: _148  and  _149
REMARK   66  A    between atoms: _151  and  _153
REMARK   67  A    between atoms: _153  and  _154
REMARK   68  A    between atoms: _156  and  _158
REMARK   69  A    between atoms: _158  and  _159
REMARK   70  A    between atoms: _161  and  _163
REMARK   71  A    between atoms: _163  and  _164
REMARK   72  A    between atoms: _163  and  _166
REMARK   73  A    between atoms: _166  and  _167
REMARK   74  A    between atoms: _170  and  _172
REMARK   75  A    between atoms: _172  and  _173
REMARK   76  A    between atoms: _172  and  _175
REMARK   77  A    between atoms: _178  and  _180
REMARK   78  A    between atoms: _180  and  _181
REMARK   79  A    between atoms: _180  and  _183
REMARK   80  A    between atoms: _183  and  _184
REMARK   81  A    between atoms: _186  and  _188
REMARK   82  A    between atoms: _188  and  _189
REMARK   83  A    between atoms: _188  and  _191
REMARK   84  A    between atoms: _191  and  _192
REMARK   85  A    between atoms: _202  and  _204
REMARK   86  A    between atoms: _204  and  _205
REMARK   87  A    between atoms: _207  and  _209
REMARK   88  A    between atoms: _209  and  _210
REMARK   89  A    between atoms: _209  and  _212
REMARK   90  A    between atoms: _212  and  _213
REMARK   91  A    between atoms: _213  and  _214
REMARK   92  A    between atoms: _217  and  _219
REMARK   93  A    between atoms: _219  and  _220
REMARK   94  A    between atoms: _222  and  _224
REMARK   95  A    between atoms: _224  and  _225
REMARK   96  A    between atoms: _224  and  _227
REMARK   97  A    between atoms: _227  and  _228
REMARK   98  A    between atoms: _229  and  _231
REMARK   99  A    between atoms: _231  and  _232
REMARK  100  A    between atoms: _235  and  _237
REMARK  101  A    between atoms: _237  and  _238
REMARK  102  A    between atoms: _237  and  _240
REMARK  103  A    between atoms: _240  and  _241
REMARK  104  A    between atoms: _241  and  _242
REMARK  105  A    between atoms: _247  and  _249
REMARK  106  A    between atoms: _249  and  _250
REMARK  107  A    between atoms: _249  and  _252
REMARK  108  A    between atoms: _252  and  _253
REMARK  109  A    between atoms: _253  and  _254
REMARK  110  A    between atoms: _254  and  _255
REMARK  111  A    between atoms: _255  and  _256
REMARK  112  A    between atoms: _261  and  _262
REMARK  113  A    between atoms: _267  and  _269
REMARK  114  A    between atoms: _269  and  _270
REMARK  115  A    between atoms: _272  and  _274
REMARK  116  A    between atoms: _274  and  _275
REMARK  117  A    between atoms: _274  and  _277
REMARK  118  A    between atoms: _280  and  _282
REMARK  119  A    between atoms: _282  and  _283
REMARK  120  A    between atoms: _282  and  _285
REMARK  121  A    between atoms: _285  and  _286
REMARK  122  A    between atoms: _291  and  _292
REMARK                            x       y       z     vdW  Elec       q    Type
REMARK                         _______ _______ _______ _____ _____    ______ ____
ROOT
ATOM      1  C   ILE A   1      60.934  62.404 -31.472  0.00  0.00    +0.202 C 
ATOM      2  N   VAL A   2      60.726  62.388 -30.161  0.00  0.00    -0.301 N 
ATOM      3  H   VAL A   2      59.753  62.324 -29.800  0.00  0.00    +0.150 HD
ATOM      4  O   ILE A   1      62.053  62.510 -31.973  0.00  0.00    -0.277 OA
ENDROOT
BRANCH   1   5
ATOM      5  CA  ILE A   1      59.698  62.295 -32.353  0.00  0.00    +0.013 C 
BRANCH   5   6
ATOM      6  N   ILE A   1      59.647  63.450 -33.291  0.00  0.00    +0.387 N 
ATOM      7  H1  ILE A   1      59.606  64.335 -32.747  0.00  0.00    -0.089 HD
ATOM      8  H2  ILE A   1      60.498  63.448 -33.888  0.00  0.00    -0.089 HD
ATOM      9  H3  ILE A   1      58.801  63.371 -33.891  0.00  0.00    -0.089 HD
ENDBRANCH   5   6
BRANCH   5  10
ATOM     10  CB  ILE A   1      59.778  60.951 -33.118  0.00  0.00    -0.011 C 
ATOM     11  CG2 ILE A   1      59.862  59.789 -32.127  0.00  0.00    -0.002 C 
BRANCH  10  12
ATOM     12  CG1 ILE A   1      58.573  60.791 -34.050  0.00  0.00    -0.002 C 
ATOM     13  CD1 ILE A   1      57.249  60.591 -33.337  0.00  0.00    -0.000 C 
ENDBRANCH  10  12
ENDBRANCH   5  10
ENDBRANCH   1   5
BRANCH   2  14
ATOM     14  CA  VAL A   2      61.832  62.458 -29.220  0.00  0.00    +0.137 C 
BRANCH  14  15
ATOM     15  CB  VAL A   2      61.530  63.427 -28.059  0.00  0.00    +0.026 C 
ATOM     16  CG2 VAL A   2      62.730  63.499 -27.123  0.00  0.00    +0.002 C 
ATOM     17  CG1 VAL A   2      61.193  64.807 -28.603  0.00  0.00    +0.002 C 
ENDBRANCH  14  15
BRANCH  14  18
ATOM     18  C   VAL A   2      62.063  61.064 -28.641  0.00  0.00    +0.227 C 
ATOM     19  O   VAL A   2      61.116  60.390 -28.237  0.00  0.00    -0.286 OA
ENDBRANCH  14  18
ENDBRANCH   2  14
TORSDOF 7
REMARK  Name = ../refined-set-2016/1v2s/1v2s_pocket.pdb
REMARK  122 active torsions:
REMARK  status: ('A' for Active; 'I' for Inactive)
REMARK    1  A    between atoms: _1  and  _5
REMARK    2  A    between atoms: _5  and  _6
REMARK    3  A    between atoms: _5  and  _8
REMARK    4  A    between atoms: _8  and  _9
REMARK    5  A    between atoms: _12  and  _14
REMARK    6  A    between atoms: _14  and  _15
REMARK    7  A    between atoms: _14  and  _17
REMARK    8  A    between atoms: _20  and  _22
REMARK    9  A    between atoms: _22  and  _23
REMARK   10  A    between atoms: _22  and  _25
REMARK   11  A    between atoms: _25  and  _26
REMARK   12  A    between atoms: _31  and  _33
REMARK   13  A    between atoms: _33  and  _34
REMARK   14  A    between atoms: _33  and  _36
REMARK   15  A    between atoms: _36  and  _37
REMARK   16  A    between atoms: _40  and  _42
REMARK   17  A    between atoms: _42  and  _43
REMARK   18  A    between atoms: _42  and  _45
REMARK   19  A    between atoms: _45  and  _46
REMARK   20  A    between atoms: _49  and  _51
REMARK   21  A    between atoms: _51  and  _52
REMARK   22  A    between atoms: _51  and  _54
REMARK   23  A    between atoms: _54  and  _55
REMARK   24  A    between atoms: _60  and  _62
REMARK   25  A    between atoms: _62  and  _63
REMARK   26  A    between atoms: _62  and  _65
REMARK   27  A    between atoms: _65  and  _66
REMARK   28  A    between atoms: _71  and  _72
REMARK   29  A    between atoms: _74  and  _76
REMARK   30  A    between atoms: _76  and  _77
REMARK   31  A    between atoms: _80  and  _82
REMARK   32  A    between atoms: _82  and  _83
REMARK   33  A    between atoms: _82  and  _85
REMARK   34  A    between atoms: _85  and  _86
REMARK   35  A    between atoms: _86  and  _87
REMARK   36  A    between atoms: _87  and  _88
REMARK   37  A    between atoms: _88  and  _89
REMARK   38  A    between atoms: _93  and  _95
REMARK   39  A    between atoms: _95  and  _96
REMARK   40  A    between atoms: _95  and  _98
REMARK   41  A    between atoms: _98  and  _99
REMARK   42  A    between atoms: _102  and  _104
REMARK   43  A    between atoms: _104  and  _105
REMARK   44  A    between atoms: _104  and  _107
REMARK   45  A    between atoms: _107  and  _108
REMARK   46  A    between atoms: _110  and  _112
REMARK   47  A    between atoms: _112  and  _113
REMARK   48  A    between atoms: _112  and  _115
REMARK   49  A    between atoms: _115  and  _116
REMARK   50  A    between atoms: _116  and  _228
REMARK   51  A    between atoms: _117  and  _119
REMARK   52  A    between atoms: _119  and  _120
REMARK   53  A    between atoms: _119  and  _122
REMARK   54  A    between atoms: _122  and  _123
REMARK   55  A    between atoms: _123  and  _124
REMARK   56  A    between atoms: _129  and  _131
REMARK   57  A    between atoms: _131  and  _132
REMARK   58  A    between atoms: _134  and  _136
REMARK   59  A    between atoms: _136  and  _137
REMARK   60  A    between atoms: _136  and  _139
REMARK   61  A    between atoms: _139  and  _140
REMARK   62  A    between atoms: _143  and  _145
REMARK   63  A    between atoms: _145  and  _146
REMARK   64  A    between atoms: _145  and  _148
REMARK   65  A    between atoms: _148  and  _149
REMARK   66  A    between atoms: _151  and  _153
REMARK   67  A    between atoms: _153  and  _154
REMARK   68  A    between atoms: _156  and  _158
REMARK   69  A    between atoms: _158  and  _159
REMARK   70  A    between atoms: _161  and  _163
REMARK   71  A    between atoms: _163  and  _164
REMARK   72  A    between atoms: _163  and  _166
REMARK   73  A    between atoms: _166  and  _167
REMARK   74  A    between atoms: _170  and  _172
REMARK   75  A    between atoms: _172  and  _173
REMARK   76  A    between atoms: _172  and  _175
REMARK   77  A    between atoms: _178  and  _180
REMARK   78  A    between atoms: _180  and  _181
REMARK   79  A    between atoms: _180  and  _183
REMARK   80  A    between atoms: _183  and  _184
REMARK   81  A    between atoms: _186  and  _188
REMARK   82  A    between atoms: _188  and  _189
REMARK   83  A    between atoms: _188  and  _191
REMARK   84  A    between atoms: _191  and  _192
REMARK   85  A    between atoms: _202  and  _204
REMARK   86  A    between atoms: _204  and  _205
REMARK   87  A    between atoms: _207  and  _209
REMARK   88  A    between atoms: _209  and  _210
REMARK   89  A    between atoms: _209  and  _212
REMARK   90  A    between atoms: _212  and  _213
REMARK   91  A    between atoms: _213  and  _214
REMARK   92  A    between atoms: _217  and  _219
REMARK   93  A    between atoms: _219  and  _220
REMARK   94  A    between atoms: _222  and  _224
REMARK   95  A    between atoms: _224  and  _225
REMARK   96  A    between atoms: _224  and  _227
REMARK   97  A    between atoms: _227  and  _228
REMARK   98  A    between atoms: _229  and  _231
REMARK   99  A    between atoms: _231  and  _232
REMARK  100  A    between atoms: _235  and  _237
REMARK  101  A    between atoms: _237  and  _238
REMARK  102  A    between atoms: _237  and  _240
REMARK  103  A    between atoms: _240  and  _241
REMARK  104  A    between atoms: _241  and  _242
REMARK  105  A    between atoms: _247  and  _249
REMARK  106  A    between atoms: _249  and  _250
REMARK  107  A    between atoms: _249  and  _252
REMARK  108  A    between atoms: _252  and  _253
REMARK  109  A    between atoms: _253  and  _254
REMARK  110  A    between atoms: _254  and  _255
REMARK  111  A    between atoms: _255  and  _256
REMARK  112  A    between atoms: _261  and  _262
REMARK  113  A    between atoms: _267  and  _269
REMARK  114  A    between atoms: _269  and  _270
REMARK  115  A    between atoms: _272  and  _274
REMARK  116  A    between atoms: _274  and  _275
REMARK  117  A    between atoms: _274  and  _277
REMARK  118  A    between atoms: _280  and  _282
REMARK  119  A    between atoms: _282  and  _283
REMARK  120  A    between atoms: _282  and  _285
REMARK  121  A    between atoms: _285  and  _286
REMARK  122  A    between atoms: _291  and  _292
REMARK                            x       y       z     vdW  Elec       q    Type
REMARK                         _______ _______ _______ _____ _____    ______ ____
ROOT
ATOM      1  CB  HIS A   1      45.481  72.220 -35.034  0.00  0.00    +0.072 C 
ENDROOT
BRANCH   1   2
ATOM      2  CG  HIS A   1      46.686  71.368 -34.778  0.00  0.00    +0.082 A 
ATOM      3  ND1 HIS A   1      46.600  70.078 -34.299  0.00  0.00    -0.227 NA
ATOM      4  CE1 HIS A   1      47.817  69.599 -34.109  0.00  0.00    +0.199 A 
ATOM      5  NE2 HIS A   1      48.690  70.530 -34.451  0.00  0.00    -0.221 NA
ATOM      6  CD2 HIS A   1      48.009  71.645 -34.875  0.00  0.00    +0.115 A 
ENDBRANCH   1   2
BRANCH   1   7
ATOM      7  CA  HIS A   1      44.990  72.226 -36.496  0.00  0.00    +0.139 C 
BRANCH   7   8
ATOM      8  N   HIS A   1      44.132  71.081 -36.771  0.00  0.00    -0.239 NA
ATOM      9  H   HIS A   1      44.162  70.244 -36.155  0.00  0.00    +0.142 HD
ENDBRANCH   7   8
BRANCH   7  10
ATOM     10  C   HIS A   1      46.154  72.309 -37.480  0.00  0.00    +0.224 C 
ATOM     11  O   HIS A   1      46.970  73.230 -37.421  0.00  0.00    -0.287 OA
ENDBRANCH   7  10
ENDBRANCH   1   7
TORSDOF 4
REMARK  Name = ../refined-set-2016/1v2s/1v2s_pocket.pdb
REMARK  122 active torsions:
REMARK  status: ('A' for Active; 'I' for Inactive)
REMARK    1  A    between atoms: _1  and  _5
REMARK    2  A    between atoms: _5  and  _6
REMARK    3  A    between atoms: _5  and  _8
REMARK    4  A    between atoms: _8  and  _9
REMARK    5  A    between atoms: _12  and  _14
REMARK    6  A    between atoms: _14  and  _15
REMARK    7  A    between atoms: _14  and  _17
REMARK    8  A    between atoms: _20  and  _22
REMARK    9  A    between atoms: _22  and  _23
REMARK   10  A    between atoms: _22  and  _25
REMARK   11  A    between atoms: _25  and  _26
REMARK   12  A    between atoms: _31  and  _33
REMARK   13  A    between atoms: _33  and  _34
REMARK   14  A    between atoms: _33  and  _36
REMARK   15  A    between atoms: _36  and  _37
REMARK   16  A    between atoms: _40  and  _42
REMARK   17  A    between atoms: _42  and  _43
REMARK   18  A    between atoms: _42  and  _45
REMARK   19  A    between atoms: _45  and  _46
REMARK   20  A    between atoms: _49  and  _51
REMARK   21  A    between atoms: _51  and  _52
REMARK   22  A    between atoms: _51  and  _54
REMARK   23  A    between atoms: _54  and  _55
REMARK   24  A    between atoms: _60  and  _62
REMARK   25  A    between atoms: _62  and  _63
REMARK   26  A    between atoms: _62  and  _65
REMARK   27  A    between atoms: _65  and  _66
REMARK   28  A    between atoms: _71  and  _72
REMARK   29  A    between atoms: _74  and  _76
REMARK   30  A    between atoms: _76  and  _77
REMARK   31  A    between atoms: _80  and  _82
REMARK   32  A    between atoms: _82  and  _83
REMARK   33  A    between atoms: _82  and  _85
REMARK   34  A    between atoms: _85  and  _86
REMARK   35  A    between atoms: _86  and  _87
REMARK   36  A    between atoms: _87  and  _88
REMARK   37  A    between atoms: _88  and  _89
REMARK   38  A    between atoms: _93  and  _95
REMARK   39  A    between atoms: _95  and  _96
REMARK   40  A    between atoms: _95  and  _98
REMARK   41  A    between atoms: _98  and  _99
REMARK   42  A    between atoms: _102  and  _104
REMARK   43  A    between atoms: _104  and  _105
REMARK   44  A    between atoms: _104  and  _107
REMARK   45  A    between atoms: _107  and  _108
REMARK   46  A    between atoms: _110  and  _112
REMARK   47  A    between atoms: _112  and  _113
REMARK   48  A    between atoms: _112  and  _115
REMARK   49  A    between atoms: _115  and  _116
REMARK   50  A    between atoms: _116  and  _228
REMARK   51  A    between atoms: _117  and  _119
REMARK   52  A    between atoms: _119  and  _120
REMARK   53  A    between atoms: _119  and  _122
REMARK   54  A    between atoms: _122  and  _123
REMARK   55  A    between atoms: _123  and  _124
REMARK   56  A    between atoms: _129  and  _131
REMARK   57  A    between atoms: _131  and  _132
REMARK   58  A    between atoms: _134  and  _136
REMARK   59  A    between atoms: _136  and  _137
REMARK   60  A    between atoms: _136  and  _139
REMARK   61  A    between atoms: _139  and  _140
REMARK   62  A    between atoms: _143  and  _145
REMARK   63  A    between atoms: _145  and  _146
REMARK   64  A    between atoms: _145  and  _148
REMARK   65  A    between atoms: _148  and  _149
REMARK   66  A    between atoms: _151  and  _153
REMARK   67  A    between atoms: _153  and  _154
REMARK   68  A    between atoms: _156  and  _158
REMARK   69  A    between atoms: _158  and  _159
REMARK   70  A    between atoms: _161  and  _163
REMARK   71  A    between atoms: _163  and  _164
REMARK   72  A    between atoms: _163  and  _166
REMARK   73  A    between atoms: _166  and  _167
REMARK   74  A    between atoms: _170  and  _172
REMARK   75  A    between atoms: _172  and  _173
REMARK   76  A    between atoms: _172  and  _175
REMARK   77  A    between atoms: _178  and  _180
REMARK   78  A    between atoms: _180  and  _181
REMARK   79  A    between atoms: _180  and  _183
REMARK   80  A    between atoms: _183  and  _184
REMARK   81  A    between atoms: _186  and  _188
REMARK   82  A    between atoms: _188  and  _189
REMARK   83  A    between atoms: _188  and  _191
REMARK   84  A    between atoms: _191  and  _192
REMARK   85  A    between atoms: _202  and  _204
REMARK   86  A    between atoms: _204  and  _205
REMARK   87  A    between atoms: _207  and  _209
REMARK   88  A    between atoms: _209  and  _210
REMARK   89  A    between atoms: _209  and  _212
REMARK   90  A    between atoms: _212  and  _213
REMARK   91  A    between atoms: _213  and  _214
REMARK   92  A    between atoms: _217  and  _219
REMARK   93  A    between atoms: _219  and  _220
REMARK   94  A    between atoms: _222  and  _224
REMARK   95  A    between atoms: _224  and  _225
REMARK   96  A    between atoms: _224  and  _227
REMARK   97  A    between atoms: _227  and  _228
REMARK   98  A    between atoms: _229  and  _231
REMARK   99  A    between atoms: _231  and  _232
REMARK  100  A    between atoms: _235  and  _237
REMARK  101  A    between atoms: _237  and  _238
REMARK  102  A    between atoms: _237  and  _240
REMARK  103  A    between atoms: _240  and  _241
REMARK  104  A    between atoms: _241  and  _242
REMARK  105  A    between atoms: _247  and  _249
REMARK  106  A    between atoms: _249  and  _250
REMARK  107  A    between atoms: _249  and  _252
REMARK  108  A    between atoms: _252  and  _253
REMARK  109  A    between atoms: _253  and  _254
REMARK  110  A    between atoms: _254  and  _255
REMARK  111  A    between atoms: _255  and  _256
REMARK  112  A    between atoms: _261  and  _262
REMARK  113  A    between atoms: _267  and  _269
REMARK  114  A    between atoms: _269  and  _270
REMARK  115  A    between atoms: _272  and  _274
REMARK  116  A    between atoms: _274  and  _275
REMARK  117  A    between atoms: _274  and  _277
REMARK  118  A    between atoms: _280  and  _282
REMARK  119  A    between atoms: _282  and  _283
REMARK  120  A    between atoms: _282  and  _285
REMARK  121  A    between atoms: _285  and  _286
REMARK  122  A    between atoms: _291  and  _292
REMARK                            x       y       z     vdW  Elec       q    Type
REMARK                         _______ _______ _______ _____ _____    ______ ____
ROOT
ATOM      1  CA  LEU A   1      41.600  71.088 -29.886  0.00  0.00    +0.133 C 
ENDROOT
BRANCH   1   2
ATOM      2  N   LEU A   1      41.124  72.092 -28.939  0.00  0.00    -0.239 NA
ATOM      3  H   LEU A   1      40.695  72.964 -29.310  0.00  0.00    +0.142 HD
ENDBRANCH   1   2
BRANCH   1   4
ATOM      4  C   LEU A   1      40.712  69.850 -29.863  0.00  0.00    +0.224 C 
ATOM      5  O   LEU A   1      41.100  68.775 -30.322  0.00  0.00    -0.287 OA
ENDBRANCH   1   4
BRANCH   1   6
ATOM      6  CB  LEU A   1      43.062  70.715 -29.606  0.00  0.00    +0.025 C 
BRANCH   6   7
ATOM      7  CG  LEU A   1      44.060  71.408 -30.545  0.00  0.00    +0.002 C 
ATOM      8  CD2 LEU A   1      45.487  71.167 -30.075  0.00  0.00    +0.000 C 
ATOM      9  CD1 LEU A   1      43.758  72.890 -30.612  0.00  0.00    +0.000 C 
ENDBRANCH   6   7
ENDBRANCH   1   6
TORSDOF 4
REMARK  Name = ../refined-set-2016/1v2s/1v2s_pocket.pdb
REMARK  122 active torsions:
REMARK  status: ('A' for Active; 'I' for Inactive)
REMARK    1  A    between atoms: _1  and  _5
REMARK    2  A    between atoms: _5  and  _6
REMARK    3  A    between atoms: _5  and  _8
REMARK    4  A    between atoms: _8  and  _9
REMARK    5  A    between atoms: _12  and  _14
REMARK    6  A    between atoms: _14  and  _15
REMARK    7  A    between atoms: _14  and  _17
REMARK    8  A    between atoms: _20  and  _22
REMARK    9  A    between atoms: _22  and  _23
REMARK   10  A    between atoms: _22  and  _25
REMARK   11  A    between atoms: _25  and  _26
REMARK   12  A    between atoms: _31  and  _33
REMARK   13  A    between atoms: _33  and  _34
REMARK   14  A    between atoms: _33  and  _36
REMARK   15  A    between atoms: _36  and  _37
REMARK   16  A    between atoms: _40  and  _42
REMARK   17  A    between atoms: _42  and  _43
REMARK   18  A    between atoms: _42  and  _45
REMARK   19  A    between atoms: _45  and  _46
REMARK   20  A    between atoms: _49  and  _51
REMARK   21  A    between atoms: _51  and  _52
REMARK   22  A    between atoms: _51  and  _54
REMARK   23  A    between atoms: _54  and  _55
REMARK   24  A    between atoms: _60  and  _62
REMARK   25  A    between atoms: _62  and  _63
REMARK   26  A    between atoms: _62  and  _65
REMARK   27  A    between atoms: _65  and  _66
REMARK   28  A    between atoms: _71  and  _72
REMARK   29  A    between atoms: _74  and  _76
REMARK   30  A    between atoms: _76  and  _77
REMARK   31  A    between atoms: _80  and  _82
REMARK   32  A    between atoms: _82  and  _83
REMARK   33  A    between atoms: _82  and  _85
REMARK   34  A    between atoms: _85  and  _86
REMARK   35  A    between atoms: _86  and  _87
REMARK   36  A    between atoms: _87  and  _88
REMARK   37  A    between atoms: _88  and  _89
REMARK   38  A    between atoms: _93  and  _95
REMARK   39  A    between atoms: _95  and  _96
REMARK   40  A    between atoms: _95  and  _98
REMARK   41  A    between atoms: _98  and  _99
REMARK   42  A    between atoms: _102  and  _104
REMARK   43  A    between atoms: _104  and  _105
REMARK   44  A    between atoms: _104  and  _107
REMARK   45  A    between atoms: _107  and  _108
REMARK   46  A    between atoms: _110  and  _112
REMARK   47  A    between atoms: _112  and  _113
REMARK   48  A    between atoms: _112  and  _115
REMARK   49  A    between atoms: _115  and  _116
REMARK   50  A    between atoms: _116  and  _228
REMARK   51  A    between atoms: _117  and  _119
REMARK   52  A    between atoms: _119  and  _120
REMARK   53  A    between atoms: _119  and  _122
REMARK   54  A    between atoms: _122  and  _123
REMARK   55  A    between atoms: _123  and  _124
REMARK   56  A    between atoms: _129  and  _131
REMARK   57  A    between atoms: _131  and  _132
REMARK   58  A    between atoms: _134  and  _136
REMARK   59  A    between atoms: _136  and  _137
REMARK   60  A    between atoms: _136  and  _139
REMARK   61  A    between atoms: _139  and  _140
REMARK   62  A    between atoms: _143  and  _145
REMARK   63  A    between atoms: _145  and  _146
REMARK   64  A    between atoms: _145  and  _148
REMARK   65  A    between atoms: _148  and  _149
REMARK   66  A    between atoms: _151  and  _153
REMARK   67  A    between atoms: _153  and  _154
REMARK   68  A    between atoms: _156  and  _158
REMARK   69  A    between atoms: _158  and  _159
REMARK   70  A    between atoms: _161  and  _163
REMARK   71  A    between atoms: _163  and  _164
REMARK   72  A    between atoms: _163  and  _166
REMARK   73  A    between atoms: _166  and  _167
REMARK   74  A    between atoms: _170  and  _172
REMARK   75  A    between atoms: _172  and  _173
REMARK   76  A    between atoms: _172  and  _175
REMARK   77  A    between atoms: _178  and  _180
REMARK   78  A    between atoms: _180  and  _181
REMARK   79  A    between atoms: _180  and  _183
REMARK   80  A    between atoms: _183  and  _184
REMARK   81  A    between atoms: _186  and  _188
REMARK   82  A    between atoms: _188  and  _189
REMARK   83  A    between atoms: _188  and  _191
REMARK   84  A    between atoms: _191  and  _192
REMARK   85  A    between atoms: _202  and  _204
REMARK   86  A    between atoms: _204  and  _205
REMARK   87  A    between atoms: _207  and  _209
REMARK   88  A    between atoms: _209  and  _210
REMARK   89  A    between atoms: _209  and  _212
REMARK   90  A    between atoms: _212  and  _213
REMARK   91  A    between atoms: _213  and  _214
REMARK   92  A    between atoms: _217  and  _219
REMARK   93  A    between atoms: _219  and  _220
REMARK   94  A    between atoms: _222  and  _224
REMARK   95  A    between atoms: _224  and  _225
REMARK   96  A    between atoms: _224  and  _227
REMARK   97  A    between atoms: _227  and  _228
REMARK   98  A    between atoms: _229  and  _231
REMARK   99  A    between atoms: _231  and  _232
REMARK  100  A    between atoms: _235  and  _237
REMARK  101  A    between atoms: _237  and  _238
REMARK  102  A    between atoms: _237  and  _240
REMARK  103  A    between atoms: _240  and  _241
REMARK  104  A    between atoms: _241  and  _242
REMARK  105  A    between atoms: _247  and  _249
REMARK  106  A    between atoms: _249  and  _250
REMARK  107  A    between atoms: _249  and  _252
REMARK  108  A    between atoms: _252  and  _253
REMARK  109  A    between atoms: _253  and  _254
REMARK  110  A    between atoms: _254  and  _255
REMARK  111  A    between atoms: _255  and  _256
REMARK  112  A    between atoms: _261  and  _262
REMARK  113  A    between atoms: _267  and  _269
REMARK  114  A    between atoms: _269  and  _270
REMARK  115  A    between atoms: _272  and  _274
REMARK  116  A    between atoms: _274  and  _275
REMARK  117  A    between atoms: _274  and  _277
REMARK  118  A    between atoms: _280  and  _282
REMARK  119  A    between atoms: _282  and  _283
REMARK  120  A    between atoms: _282  and  _285
REMARK  121  A    between atoms: _285  and  _286
REMARK  122  A    between atoms: _291  and  _292
REMARK                            x       y       z     vdW  Elec       q    Type
REMARK                         _______ _______ _______ _____ _____    ______ ____
ROOT
ATOM      1  CA  ILE A   1      53.876  56.605 -33.741  0.00  0.00    +0.133 C 
ENDROOT
BRANCH   1   2
ATOM      2  N   ILE A   1      54.049  55.193 -33.420  0.00  0.00    -0.239 NA
ATOM      3  H   ILE A   1      54.857  54.912 -32.828  0.00  0.00    +0.142 HD
ENDBRANCH   1   2
BRANCH   1   4
ATOM      4  CB  ILE A   1      53.917  57.478 -32.466  0.00  0.00    +0.023 C 
ATOM      5  CG2 ILE A   1      53.688  58.944 -32.826  0.00  0.00    +0.002 C 
BRANCH   4   6
ATOM      6  CG1 ILE A   1      52.860  56.993 -31.469  0.00  0.00    +0.002 C 
ATOM      7  CD1 ILE A   1      52.914  57.689 -30.117  0.00  0.00    +0.000 C 
ENDBRANCH   4   6
ENDBRANCH   1   4
BRANCH   1   8
ATOM      8  C   ILE A   1      55.052  56.983 -34.632  0.00  0.00    +0.224 C 
ATOM      9  O   ILE A   1      56.172  56.550 -34.384  0.00  0.00    -0.287 OA
ENDBRANCH   1   8
TORSDOF 4
REMARK  Name = ../refined-set-2016/1v2s/1v2s_pocket.pdb
REMARK  122 active torsions:
REMARK  status: ('A' for Active; 'I' for Inactive)
REMARK    1  A    between atoms: _1  and  _5
REMARK    2  A    between atoms: _5  and  _6
REMARK    3  A    between atoms: _5  and  _8
REMARK    4  A    between atoms: _8  and  _9
REMARK    5  A    between atoms: _12  and  _14
REMARK    6  A    between atoms: _14  and  _15
REMARK    7  A    between atoms: _14  and  _17
REMARK    8  A    between atoms: _20  and  _22
REMARK    9  A    between atoms: _22  and  _23
REMARK   10  A    between atoms: _22  and  _25
REMARK   11  A    between atoms: _25  and  _26
REMARK   12  A    between atoms: _31  and  _33
REMARK   13  A    between atoms: _33  and  _34
REMARK   14  A    between atoms: _33  and  _36
REMARK   15  A    between atoms: _36  and  _37
REMARK   16  A    between atoms: _40  and  _42
REMARK   17  A    between atoms: _42  and  _43
REMARK   18  A    between atoms: _42  and  _45
REMARK   19  A    between atoms: _45  and  _46
REMARK   20  A    between atoms: _49  and  _51
REMARK   21  A    between atoms: _51  and  _52
REMARK   22  A    between atoms: _51  and  _54
REMARK   23  A    between atoms: _54  and  _55
REMARK   24  A    between atoms: _60  and  _62
REMARK   25  A    between atoms: _62  and  _63
REMARK   26  A    between atoms: _62  and  _65
REMARK   27  A    between atoms: _65  and  _66
REMARK   28  A    between atoms: _71  and  _72
REMARK   29  A    between atoms: _74  and  _76
REMARK   30  A    between atoms: _76  and  _77
REMARK   31  A    between atoms: _80  and  _82
REMARK   32  A    between atoms: _82  and  _83
REMARK   33  A    between atoms: _82  and  _85
REMARK   34  A    between atoms: _85  and  _86
REMARK   35  A    between atoms: _86  and  _87
REMARK   36  A    between atoms: _87  and  _88
REMARK   37  A    between atoms: _88  and  _89
REMARK   38  A    between atoms: _93  and  _95
REMARK   39  A    between atoms: _95  and  _96
REMARK   40  A    between atoms: _95  and  _98
REMARK   41  A    between atoms: _98  and  _99
REMARK   42  A    between atoms: _102  and  _104
REMARK   43  A    between atoms: _104  and  _105
REMARK   44  A    between atoms: _104  and  _107
REMARK   45  A    between atoms: _107  and  _108
REMARK   46  A    between atoms: _110  and  _112
REMARK   47  A    between atoms: _112  and  _113
REMARK   48  A    between atoms: _112  and  _115
REMARK   49  A    between atoms: _115  and  _116
REMARK   50  A    between atoms: _116  and  _228
REMARK   51  A    between atoms: _117  and  _119
REMARK   52  A    between atoms: _119  and  _120
REMARK   53  A    between atoms: _119  and  _122
REMARK   54  A    between atoms: _122  and  _123
REMARK   55  A    between atoms: _123  and  _124
REMARK   56  A    between atoms: _129  and  _131
REMARK   57  A    between atoms: _131  and  _132
REMARK   58  A    between atoms: _134  and  _136
REMARK   59  A    between atoms: _136  and  _137
REMARK   60  A    between atoms: _136  and  _139
REMARK   61  A    between atoms: _139  and  _140
REMARK   62  A    between atoms: _143  and  _145
REMARK   63  A    between atoms: _145  and  _146
REMARK   64  A    between atoms: _145  and  _148
REMARK   65  A    between atoms: _148  and  _149
REMARK   66  A    between atoms: _151  and  _153
REMARK   67  A    between atoms: _153  and  _154
REMARK   68  A    between atoms: _156  and  _158
REMARK   69  A    between atoms: _158  and  _159
REMARK   70  A    between atoms: _161  and  _163
REMARK   71  A    between atoms: _163  and  _164
REMARK   72  A    between atoms: _163  and  _166
REMARK   73  A    between atoms: _166  and  _167
REMARK   74  A    between atoms: _170  and  _172
REMARK   75  A    between atoms: _172  and  _173
REMARK   76  A    between atoms: _172  and  _175
REMARK   77  A    between atoms: _178  and  _180
REMARK   78  A    between atoms: _180  and  _181
REMARK   79  A    between atoms: _180  and  _183
REMARK   80  A    between atoms: _183  and  _184
REMARK   81  A    between atoms: _186  and  _188
REMARK   82  A    between atoms: _188  and  _189
REMARK   83  A    between atoms: _188  and  _191
REMARK   84  A    between atoms: _191  and  _192
REMARK   85  A    between atoms: _202  and  _204
REMARK   86  A    between atoms: _204  and  _205
REMARK   87  A    between atoms: _207  and  _209
REMARK   88  A    between atoms: _209  and  _210
REMARK   89  A    between atoms: _209  and  _212
REMARK   90  A    between atoms: _212  and  _213
REMARK   91  A    between atoms: _213  and  _214
REMARK   92  A    between atoms: _217  and  _219
REMARK   93  A    between atoms: _219  and  _220
REMARK   94  A    between atoms: _222  and  _224
REMARK   95  A    between atoms: _224  and  _225
REMARK   96  A    between atoms: _224  and  _227
REMARK   97  A    between atoms: _227  and  _228
REMARK   98  A    between atoms: _229  and  _231
REMARK   99  A    between atoms: _231  and  _232
REMARK  100  A    between atoms: _235  and  _237
REMARK  101  A    between atoms: _237  and  _238
REMARK  102  A    between atoms: _237  and  _240
REMARK  103  A    between atoms: _240  and  _241
REMARK  104  A    between atoms: _241  and  _242
REMARK  105  A    between atoms: _247  and  _249
REMARK  106  A    between atoms: _249  and  _250
REMARK  107  A    between atoms: _249  and  _252
REMARK  108  A    between atoms: _252  and  _253
REMARK  109  A    between atoms: _253  and  _254
REMARK  110  A    between atoms: _254  and  _255
REMARK  111  A    between atoms: _255  and  _256
REMARK  112  A    between atoms: _261  and  _262
REMARK  113  A    between atoms: _267  and  _269
REMARK  114  A    between atoms: _269  and  _270
REMARK  115  A    between atoms: _272  and  _274
REMARK  116  A    between atoms: _274  and  _275
REMARK  117  A    between atoms: _274  and  _277
REMARK  118  A    between atoms: _280  and  _282
REMARK  119  A    between atoms: _282  and  _283
REMARK  120  A    between atoms: _282  and  _285
REMARK  121  A    between atoms: _285  and  _286
REMARK  122  A    between atoms: _291  and  _292
REMARK                            x       y       z     vdW  Elec       q    Type
REMARK                         _______ _______ _______ _____ _____    ______ ____
ROOT
ATOM      1  CB  ASN A   1      61.098  68.980 -32.739  0.00  0.00    +0.110 C 
ENDROOT
BRANCH   1   2
ATOM      2  CG  ASN A   1      62.275  69.445 -31.896  0.00  0.00    +0.221 C 
ATOM      3  ND2 ASN A   1      61.977  70.119 -30.792  0.00  0.00    -0.329 N 
ATOM      4 HD21 ASN A   1      62.738  70.477 -30.180  0.00  0.00    +0.145 HD
ATOM      5 HD22 ASN A   1      60.983  70.289 -30.539  0.00  0.00    +0.145 HD
ATOM      6  OD1 ASN A   1      63.433  69.218 -32.239  0.00  0.00    -0.275 OA
ENDBRANCH   1   2
BRANCH   1   7
ATOM      7  CA  ASN A   1      61.439  67.786 -33.645  0.00  0.00    +0.142 C 
BRANCH   7   8
ATOM      8  N   ASN A   1      60.286  67.489 -34.491  0.00  0.00    -0.239 NA
ATOM      9  H   ASN A   1      59.462  68.121 -34.439  0.00  0.00    +0.142 HD
ENDBRANCH   7   8
BRANCH   7  10
ATOM     10  C   ASN A   1      61.823  66.563 -32.814  0.00  0.00    +0.225 C 
ATOM     11  O   ASN A   1      60.957  65.839 -32.325  0.00  0.00    -0.287 OA
ENDBRANCH   7  10
ENDBRANCH   1   7
TORSDOF 4
REMARK  Name = ../refined-set-2016/1v2s/1v2s_pocket.pdb
REMARK  122 active torsions:
REMARK  status: ('A' for Active; 'I' for Inactive)
REMARK    1  A    between atoms: _1  and  _5
REMARK    2  A    between atoms: _5  and  _6
REMARK    3  A    between atoms: _5  and  _8
REMARK    4  A    between atoms: _8  and  _9
REMARK    5  A    between atoms: _12  and  _14
REMARK    6  A    between atoms: _14  and  _15
REMARK    7  A    between atoms: _14  and  _17
REMARK    8  A    between atoms: _20  and  _22
REMARK    9  A    between atoms: _22  and  _23
REMARK   10  A    between atoms: _22  and  _25
REMARK   11  A    between atoms: _25  and  _26
REMARK   12  A    between atoms: _31  and  _33
REMARK   13  A    between atoms: _33  and  _34
REMARK   14  A    between atoms: _33  and  _36
REMARK   15  A    between atoms: _36  and  _37
REMARK   16  A    between atoms: _40  and  _42
REMARK   17  A    between atoms: _42  and  _43
REMARK   18  A    between atoms: _42  and  _45
REMARK   19  A    between atoms: _45  and  _46
REMARK   20  A    between atoms: _49  and  _51
REMARK   21  A    between atoms: _51  and  _52
REMARK   22  A    between atoms: _51  and  _54
REMARK   23  A    between atoms: _54  and  _55
REMARK   24  A    between atoms: _60  and  _62
REMARK   25  A    between atoms: _62  and  _63
REMARK   26  A    between atoms: _62  and  _65
REMARK   27  A    between atoms: _65  and  _66
REMARK   28  A    between atoms: _71  and  _72
REMARK   29  A    between atoms: _74  and  _76
REMARK   30  A    between atoms: _76  and  _77
REMARK   31  A    between atoms: _80  and  _82
REMARK   32  A    between atoms: _82  and  _83
REMARK   33  A    between atoms: _82  and  _85
REMARK   34  A    between atoms: _85  and  _86
REMARK   35  A    between atoms: _86  and  _87
REMARK   36  A    between atoms: _87  and  _88
REMARK   37  A    between atoms: _88  and  _89
REMARK   38  A    between atoms: _93  and  _95
REMARK   39  A    between atoms: _95  and  _96
REMARK   40  A    between atoms: _95  and  _98
REMARK   41  A    between atoms: _98  and  _99
REMARK   42  A    between atoms: _102  and  _104
REMARK   43  A    between atoms: _104  and  _105
REMARK   44  A    between atoms: _104  and  _107
REMARK   45  A    between atoms: _107  and  _108
REMARK   46  A    between atoms: _110  and  _112
REMARK   47  A    between atoms: _112  and  _113
REMARK   48  A    between atoms: _112  and  _115
REMARK   49  A    between atoms: _115  and  _116
REMARK   50  A    between atoms: _116  and  _228
REMARK   51  A    between atoms: _117  and  _119
REMARK   52  A    between atoms: _119  and  _120
REMARK   53  A    between atoms: _119  and  _122
REMARK   54  A    between atoms: _122  and  _123
REMARK   55  A    between atoms: _123  and  _124
REMARK   56  A    between atoms: _129  and  _131
REMARK   57  A    between atoms: _131  and  _132
REMARK   58  A    between atoms: _134  and  _136
REMARK   59  A    between atoms: _136  and  _137
REMARK   60  A    between atoms: _136  and  _139
REMARK   61  A    between atoms: _139  and  _140
REMARK   62  A    between atoms: _143  and  _145
REMARK   63  A    between atoms: _145  and  _146
REMARK   64  A    between atoms: _145  and  _148
REMARK   65  A    between atoms: _148  and  _149
REMARK   66  A    between atoms: _151  and  _153
REMARK   67  A    between atoms: _153  and  _154
REMARK   68  A    between atoms: _156  and  _158
REMARK   69  A    between atoms: _158  and  _159
REMARK   70  A    between atoms: _161  and  _163
REMARK   71  A    between atoms: _163  and  _164
REMARK   72  A    between atoms: _163  and  _166
REMARK   73  A    between atoms: _166  and  _167
REMARK   74  A    between atoms: _170  and  _172
REMARK   75  A    between atoms: _172  and  _173
REMARK   76  A    between atoms: _172  and  _175
REMARK   77  A    between atoms: _178  and  _180
REMARK   78  A    between atoms: _180  and  _181
REMARK   79  A    between atoms: _180  and  _183
REMARK   80  A    between atoms: _183  and  _184
REMARK   81  A    between atoms: _186  and  _188
REMARK   82  A    between atoms: _188  and  _189
REMARK   83  A    between atoms: _188  and  _191
REMARK   84  A    between atoms: _191  and  _192
REMARK   85  A    between atoms: _202  and  _204
REMARK   86  A    between atoms: _204  and  _205
REMARK   87  A    between atoms: _207  and  _209
REMARK   88  A    between atoms: _209  and  _210
REMARK   89  A    between atoms: _209  and  _212
REMARK   90  A    between atoms: _212  and  _213
REMARK   91  A    between atoms: _213  and  _214
REMARK   92  A    between atoms: _217  and  _219
REMARK   93  A    between atoms: _219  and  _220
REMARK   94  A    between atoms: _222  and  _224
REMARK   95  A    between atoms: _224  and  _225
REMARK   96  A    between atoms: _224  and  _227
REMARK   97  A    between atoms: _227  and  _228
REMARK   98  A    between atoms: _229  and  _231
REMARK   99  A    between atoms: _231  and  _232
REMARK  100  A    between atoms: _235  and  _237
REMARK  101  A    between atoms: _237  and  _238
REMARK  102  A    between atoms: _237  and  _240
REMARK  103  A    between atoms: _240  and  _241
REMARK  104  A    between atoms: _241  and  _242
REMARK  105  A    between atoms: _247  and  _249
REMARK  106  A    between atoms: _249  and  _250
REMARK  107  A    between atoms: _249  and  _252
REMARK  108  A    between atoms: _252  and  _253
REMARK  109  A    between atoms: _253  and  _254
REMARK  110  A    between atoms: _254  and  _255
REMARK  111  A    between atoms: _255  and  _256
REMARK  112  A    between atoms: _261  and  _262
REMARK  113  A    between atoms: _267  and  _269
REMARK  114  A    between atoms: _269  and  _270
REMARK  115  A    between atoms: _272  and  _274
REMARK  116  A    between atoms: _274  and  _275
REMARK  117  A    between atoms: _274  and  _277
REMARK  118  A    between atoms: _280  and  _282
REMARK  119  A    between atoms: _282  and  _283
REMARK  120  A    between atoms: _282  and  _285
REMARK  121  A    between atoms: _285  and  _286
REMARK  122  A    between atoms: _291  and  _292
REMARK                            x       y       z     vdW  Elec       q    Type
REMARK                         _______ _______ _______ _____ _____    ______ ____
ROOT
ATOM      1  CG  TYR A   1      62.733  70.143 -37.244  0.00  0.00    -0.020 A 
ATOM      2  CD2 TYR A   1      63.129  71.300 -36.575  0.00  0.00    -0.001 A 
ATOM      3  CE2 TYR A   1      62.239  72.006 -35.771  0.00  0.00    +0.036 A 
ATOM      4  CZ  TYR A   1      60.938  71.555 -35.633  0.00  0.00    +0.134 A 
ATOM      5  CE1 TYR A   1      60.519  70.409 -36.291  0.00  0.00    +0.036 A 
ATOM      6  CD1 TYR A   1      61.417  69.711 -37.091  0.00  0.00    -0.001 A 
ENDROOT
BRANCH   4   7
ATOM      7  OH  TYR A   1      60.058  72.245 -34.832  0.00  0.00    -0.506 OA
ATOM      8  HH  TYR A   1      59.178  71.792 -34.844  0.00  0.00    +0.292 HD
ENDBRANCH   4   7
BRANCH   1   9
ATOM      9  CB  TYR A   1      63.717  69.349 -38.070  0.00  0.00    +0.051 C 
BRANCH   9  10
ATOM     10  CA  TYR A   1      64.513  68.350 -37.233  0.00  0.00    +0.137 C 
BRANCH  10  11
ATOM     11  N   TYR A   1      65.453  69.059 -36.379  0.00  0.00    -0.239 NA
ATOM     12  H   TYR A   1      65.975  69.873 -36.763  0.00  0.00    +0.142 HD
ENDBRANCH  10  11
BRANCH  10  13
ATOM     13  C   TYR A   1      65.231  67.364 -38.134  0.00  0.00    +0.224 C 
ATOM     14  O   TYR A   1      66.171  67.725 -38.844  0.00  0.00    -0.287 OA
ENDBRANCH  10  13
ENDBRANCH   9  10
ENDBRANCH   1   9
TORSDOF 5
REMARK  Name = ../refined-set-2016/1v2s/1v2s_pocket.pdb
REMARK  122 active torsions:
REMARK  status: ('A' for Active; 'I' for Inactive)
REMARK    1  A    between atoms: _1  and  _5
REMARK    2  A    between atoms: _5  and  _6
REMARK    3  A    between atoms: _5  and  _8
REMARK    4  A    between atoms: _8  and  _9
REMARK    5  A    between atoms: _12  and  _14
REMARK    6  A    between atoms: _14  and  _15
REMARK    7  A    between atoms: _14  and  _17
REMARK    8  A    between atoms: _20  and  _22
REMARK    9  A    between atoms: _22  and  _23
REMARK   10  A    between atoms: _22  and  _25
REMARK   11  A    between atoms: _25  and  _26
REMARK   12  A    between atoms: _31  and  _33
REMARK   13  A    between atoms: _33  and  _34
REMARK   14  A    between atoms: _33  and  _36
REMARK   15  A    between atoms: _36  and  _37
REMARK   16  A    between atoms: _40  and  _42
REMARK   17  A    between atoms: _42  and  _43
REMARK   18  A    between atoms: _42  and  _45
REMARK   19  A    between atoms: _45  and  _46
REMARK   20  A    between atoms: _49  and  _51
REMARK   21  A    between atoms: _51  and  _52
REMARK   22  A    between atoms: _51  and  _54
REMARK   23  A    between atoms: _54  and  _55
REMARK   24  A    between atoms: _60  and  _62
REMARK   25  A    between atoms: _62  and  _63
REMARK   26  A    between atoms: _62  and  _65
REMARK   27  A    between atoms: _65  and  _66
REMARK   28  A    between atoms: _71  and  _72
REMARK   29  A    between atoms: _74  and  _76
REMARK   30  A    between atoms: _76  and  _77
REMARK   31  A    between atoms: _80  and  _82
REMARK   32  A    between atoms: _82  and  _83
REMARK   33  A    between atoms: _82  and  _85
REMARK   34  A    between atoms: _85  and  _86
REMARK   35  A    between atoms: _86  and  _87
REMARK   36  A    between atoms: _87  and  _88
REMARK   37  A    between atoms: _88  and  _89
REMARK   38  A    between atoms: _93  and  _95
REMARK   39  A    between atoms: _95  and  _96
REMARK   40  A    between atoms: _95  and  _98
REMARK   41  A    between atoms: _98  and  _99
REMARK   42  A    between atoms: _102  and  _104
REMARK   43  A    between atoms: _104  and  _105
REMARK   44  A    between atoms: _104  and  _107
REMARK   45  A    between atoms: _107  and  _108
REMARK   46  A    between atoms: _110  and  _112
REMARK   47  A    between atoms: _112  and  _113
REMARK   48  A    between atoms: _112  and  _115
REMARK   49  A    between atoms: _115  and  _116
REMARK   50  A    between atoms: _116  and  _228
REMARK   51  A    between atoms: _117  and  _119
REMARK   52  A    between atoms: _119  and  _120
REMARK   53  A    between atoms: _119  and  _122
REMARK   54  A    between atoms: _122  and  _123
REMARK   55  A    between atoms: _123  and  _124
REMARK   56  A    between atoms: _129  and  _131
REMARK   57  A    between atoms: _131  and  _132
REMARK   58  A    between atoms: _134  and  _136
REMARK   59  A    between atoms: _136  and  _137
REMARK   60  A    between atoms: _136  and  _139
REMARK   61  A    between atoms: _139  and  _140
REMARK   62  A    between atoms: _143  and  _145
REMARK   63  A    between atoms: _145  and  _146
REMARK   64  A    between atoms: _145  and  _148
REMARK   65  A    between atoms: _148  and  _149
REMARK   66  A    between atoms: _151  and  _153
REMARK   67  A    between atoms: _153  and  _154
REMARK   68  A    between atoms: _156  and  _158
REMARK   69  A    between atoms: _158  and  _159
REMARK   70  A    between atoms: _161  and  _163
REMARK   71  A    between atoms: _163  and  _164
REMARK   72  A    between atoms: _163  and  _166
REMARK   73  A    between atoms: _166  and  _167
REMARK   74  A    between atoms: _170  and  _172
REMARK   75  A    between atoms: _172  and  _173
REMARK   76  A    between atoms: _172  and  _175
REMARK   77  A    between atoms: _178  and  _180
REMARK   78  A    between atoms: _180  and  _181
REMARK   79  A    between atoms: _180  and  _183
REMARK   80  A    between atoms: _183  and  _184
REMARK   81  A    between atoms: _186  and  _188
REMARK   82  A    between atoms: _188  and  _189
REMARK   83  A    between atoms: _188  and  _191
REMARK   84  A    between atoms: _191  and  _192
REMARK   85  A    between atoms: _202  and  _204
REMARK   86  A    between atoms: _204  and  _205
REMARK   87  A    between atoms: _207  and  _209
REMARK   88  A    between atoms: _209  and  _210
REMARK   89  A    between atoms: _209  and  _212
REMARK   90  A    between atoms: _212  and  _213
REMARK   91  A    between atoms: _213  and  _214
REMARK   92  A    between atoms: _217  and  _219
REMARK   93  A    between atoms: _219  and  _220
REMARK   94  A    between atoms: _222  and  _224
REMARK   95  A    between atoms: _224  and  _225
REMARK   96  A    between atoms: _224  and  _227
REMARK   97  A    between atoms: _227  and  _228
REMARK   98  A    between atoms: _229  and  _231
REMARK   99  A    between atoms: _231  and  _232
REMARK  100  A    between atoms: _235  and  _237
REMARK  101  A    between atoms: _237  and  _238
REMARK  102  A    between atoms: _237  and  _240
REMARK  103  A    between atoms: _240  and  _241
REMARK  104  A    between atoms: _241  and  _242
REMARK  105  A    between atoms: _247  and  _249
REMARK  106  A    between atoms: _249  and  _250
REMARK  107  A    between atoms: _249  and  _252
REMARK  108  A    between atoms: _252  and  _253
REMARK  109  A    between atoms: _253  and  _254
REMARK  110  A    between atoms: _254  and  _255
REMARK  111  A    between atoms: _255  and  _256
REMARK  112  A    between atoms: _261  and  _262
REMARK  113  A    between atoms: _267  and  _269
REMARK  114  A    between atoms: _269  and  _270
REMARK  115  A    between atoms: _272  and  _274
REMARK  116  A    between atoms: _274  and  _275
REMARK  117  A    between atoms: _274  and  _277
REMARK  118  A    between atoms: _280  and  _282
REMARK  119  A    between atoms: _282  and  _283
REMARK  120  A    between atoms: _282  and  _285
REMARK  121  A    between atoms: _285  and  _286
REMARK  122  A    between atoms: _291  and  _292
REMARK                            x       y       z     vdW  Elec       q    Type
REMARK                         _______ _______ _______ _____ _____    ______ ____
ROOT
ATOM      1  CA  ALA A   1      49.878  57.613 -24.955  0.00  0.00    +0.133 C 
ATOM      2  CB  ALA A   1      49.664  57.226 -26.421  0.00  0.00    +0.027 C 
ENDROOT
BRANCH   1   3
ATOM      3  N   ALA A   1      48.917  58.633 -24.545  0.00  0.00    -0.239 NA
ATOM      4  H   ALA A   1      49.158  59.638 -24.663  0.00  0.00    +0.142 HD
ENDBRANCH   1   3
BRANCH   1   5
ATOM      5  C   ALA A   1      51.289  58.141 -24.748  0.00  0.00    +0.224 C 
ATOM      6  O   ALA A   1      51.557  59.321 -24.970  0.00  0.00    -0.287 OA
ENDBRANCH   1   5
TORSDOF 2
REMARK  Name = ../refined-set-2016/1v2s/1v2s_pocket.pdb
REMARK  122 active torsions:
REMARK  status: ('A' for Active; 'I' for Inactive)
REMARK    1  A    between atoms: _1  and  _5
REMARK    2  A    between atoms: _5  and  _6
REMARK    3  A    between atoms: _5  and  _8
REMARK    4  A    between atoms: _8  and  _9
REMARK    5  A    between atoms: _12  and  _14
REMARK    6  A    between atoms: _14  and  _15
REMARK    7  A    between atoms: _14  and  _17
REMARK    8  A    between atoms: _20  and  _22
REMARK    9  A    between atoms: _22  and  _23
REMARK   10  A    between atoms: _22  and  _25
REMARK   11  A    between atoms: _25  and  _26
REMARK   12  A    between atoms: _31  and  _33
REMARK   13  A    between atoms: _33  and  _34
REMARK   14  A    between atoms: _33  and  _36
REMARK   15  A    between atoms: _36  and  _37
REMARK   16  A    between atoms: _40  and  _42
REMARK   17  A    between atoms: _42  and  _43
REMARK   18  A    between atoms: _42  and  _45
REMARK   19  A    between atoms: _45  and  _46
REMARK   20  A    between atoms: _49  and  _51
REMARK   21  A    between atoms: _51  and  _52
REMARK   22  A    between atoms: _51  and  _54
REMARK   23  A    between atoms: _54  and  _55
REMARK   24  A    between atoms: _60  and  _62
REMARK   25  A    between atoms: _62  and  _63
REMARK   26  A    between atoms: _62  and  _65
REMARK   27  A    between atoms: _65  and  _66
REMARK   28  A    between atoms: _71  and  _72
REMARK   29  A    between atoms: _74  and  _76
REMARK   30  A    between atoms: _76  and  _77
REMARK   31  A    between atoms: _80  and  _82
REMARK   32  A    between atoms: _82  and  _83
REMARK   33  A    between atoms: _82  and  _85
REMARK   34  A    between atoms: _85  and  _86
REMARK   35  A    between atoms: _86  and  _87
REMARK   36  A    between atoms: _87  and  _88
REMARK   37  A    between atoms: _88  and  _89
REMARK   38  A    between atoms: _93  and  _95
REMARK   39  A    between atoms: _95  and  _96
REMARK   40  A    between atoms: _95  and  _98
REMARK   41  A    between atoms: _98  and  _99
REMARK   42  A    between atoms: _102  and  _104
REMARK   43  A    between atoms: _104  and  _105
REMARK   44  A    between atoms: _104  and  _107
REMARK   45  A    between atoms: _107  and  _108
REMARK   46  A    between atoms: _110  and  _112
REMARK   47  A    between atoms: _112  and  _113
REMARK   48  A    between atoms: _112  and  _115
REMARK   49  A    between atoms: _115  and  _116
REMARK   50  A    between atoms: _116  and  _228
REMARK   51  A    between atoms: _117  and  _119
REMARK   52  A    between atoms: _119  and  _120
REMARK   53  A    between atoms: _119  and  _122
REMARK   54  A    between atoms: _122  and  _123
REMARK   55  A    between atoms: _123  and  _124
REMARK   56  A    between atoms: _129  and  _131
REMARK   57  A    between atoms: _131  and  _132
REMARK   58  A    between atoms: _134  and  _136
REMARK   59  A    between atoms: _136  and  _137
REMARK   60  A    between atoms: _136  and  _139
REMARK   61  A    between atoms: _139  and  _140
REMARK   62  A    between atoms: _143  and  _145
REMARK   63  A    between atoms: _145  and  _146
REMARK   64  A    between atoms: _145  and  _148
REMARK   65  A    between atoms: _148  and  _149
REMARK   66  A    between atoms: _151  and  _153
REMARK   67  A    between atoms: _153  and  _154
REMARK   68  A    between atoms: _156  and  _158
REMARK   69  A    between atoms: _158  and  _159
REMARK   70  A    between atoms: _161  and  _163
REMARK   71  A    between atoms: _163  and  _164
REMARK   72  A    between atoms: _163  and  _166
REMARK   73  A    between atoms: _166  and  _167
REMARK   74  A    between atoms: _170  and  _172
REMARK   75  A    between atoms: _172  and  _173
REMARK   76  A    between atoms: _172  and  _175
REMARK   77  A    between atoms: _178  and  _180
REMARK   78  A    between atoms: _180  and  _181
REMARK   79  A    between atoms: _180  and  _183
REMARK   80  A    between atoms: _183  and  _184
REMARK   81  A    between atoms: _186  and  _188
REMARK   82  A    between atoms: _188  and  _189
REMARK   83  A    between atoms: _188  and  _191
REMARK   84  A    between atoms: _191  and  _192
REMARK   85  A    between atoms: _202  and  _204
REMARK   86  A    between atoms: _204  and  _205
REMARK   87  A    between atoms: _207  and  _209
REMARK   88  A    between atoms: _209  and  _210
REMARK   89  A    between atoms: _209  and  _212
REMARK   90  A    between atoms: _212  and  _213
REMARK   91  A    between atoms: _213  and  _214
REMARK   92  A    between atoms: _217  and  _219
REMARK   93  A    between atoms: _219  and  _220
REMARK   94  A    between atoms: _222  and  _224
REMARK   95  A    between atoms: _224  and  _225
REMARK   96  A    between atoms: _224  and  _227
REMARK   97  A    between atoms: _227  and  _228
REMARK   98  A    between atoms: _229  and  _231
REMARK   99  A    between atoms: _231  and  _232
REMARK  100  A    between atoms: _235  and  _237
REMARK  101  A    between atoms: _237  and  _238
REMARK  102  A    between atoms: _237  and  _240
REMARK  103  A    between atoms: _240  and  _241
REMARK  104  A    between atoms: _241  and  _242
REMARK  105  A    between atoms: _247  and  _249
REMARK  106  A    between atoms: _249  and  _250
REMARK  107  A    between atoms: _249  and  _252
REMARK  108  A    between atoms: _252  and  _253
REMARK  109  A    between atoms: _253  and  _254
REMARK  110  A    between atoms: _254  and  _255
REMARK  111  A    between atoms: _255  and  _256
REMARK  112  A    between atoms: _261  and  _262
REMARK  113  A    between atoms: _267  and  _269
REMARK  114  A    between atoms: _269  and  _270
REMARK  115  A    between atoms: _272  and  _274
REMARK  116  A    between atoms: _274  and  _275
REMARK  117  A    between atoms: _274  and  _277
REMARK  118  A    between atoms: _280  and  _282
REMARK  119  A    between atoms: _282  and  _283
REMARK  120  A    between atoms: _282  and  _285
REMARK  121  A    between atoms: _285  and  _286
REMARK  122  A    between atoms: _291  and  _292
REMARK                            x       y       z     vdW  Elec       q    Type
REMARK                         _______ _______ _______ _____ _____    ______ ____
ROOT
ATOM      1  CA  SER A   8      57.730  67.436 -25.495  0.00  0.00    +0.160 C 
ENDROOT
BRANCH   1   2
ATOM      2  C   SER A   8      58.546  66.532 -24.593  0.00  0.00    +0.242 C 
ATOM      3  O   SER A   8      59.601  66.926 -24.099  0.00  0.00    -0.273 OA
ATOM      4  N   GLY A   9      58.045  65.321 -24.381  0.00  0.00    -0.297 N 
ATOM      5  H   GLY A   9      57.134  65.073 -24.817  0.00  0.00    +0.150 HD
BRANCH   4   6
ATOM      6  CA  GLY A   9      58.722  64.327 -23.561  0.00  0.00    +0.149 C 
ATOM      7  CB  GLY A   9      60.007  63.883 -24.248  0.00  0.00    +0.031 C 
BRANCH   6   8
ATOM      8  C   GLY A   9      59.027  64.823 -22.154  0.00  0.00    +0.241 C 
ATOM      9  O   GLY A   9      60.068  64.493 -21.582  0.00  0.00    -0.273 OA
ATOM     10  N   GLY A  10      58.118  65.615 -21.600  0.00  0.00    -0.298 N 
ATOM     11  H   GLY A  10      57.264  65.867 -22.138  0.00  0.00    +0.150 HD
BRANCH  10  12
ATOM     12  CA  GLY A  10      58.295  66.136 -20.254  0.00  0.00    +0.137 C 
BRANCH  12  13
ATOM     13  C   GLY A  10      57.692  65.180 -19.231  0.00  0.00    +0.227 C 
ATOM     14  O   GLY A  10      56.692  64.514 -19.497  0.00  0.00    -0.286 OA
ENDBRANCH  12  13
BRANCH  12  15
ATOM     15  CB  GLY A  10      57.641  67.512 -20.129  0.00  0.00    +0.037 C 
BRANCH  15  16
ATOM     16  CG  GLY A  10      58.325  68.589 -20.950  0.00  0.00    +0.087 C 
BRANCH  16  17
ATOM     17  CD  GLY A  10      59.783  68.760 -20.571  0.00  0.00    +0.219 C 
ATOM     18  OE1 GLY A  10      60.106  69.092 -19.427  0.00  0.00    -0.275 OA
ATOM     19  NE2 GLY A  10      60.675  68.531 -21.530  0.00  0.00    -0.329 N 
ATOM     20 HE21 GLY A  10      61.691  68.630 -21.330  0.00  0.00    +0.145 HD
ATOM     21 HE22 GLY A  10      60.357  68.253 -22.480  0.00  0.00    +0.145 HD
ENDBRANCH  16  17
ENDBRANCH  15  16
ENDBRANCH  12  15
ENDBRANCH  10  12
ENDBRANCH   6   8
ENDBRANCH   4   6
ENDBRANCH   1   2
BRANCH   1  22
ATOM     22  N   SER A   8      57.518  68.741 -24.878  0.00  0.00    -0.296 N 
ATOM     23  H   SER A   8      58.299  69.198 -24.366  0.00  0.00    +0.150 HD
ATOM     24  C   ASP A   7      56.344  69.354 -24.960  0.00  0.00    +0.243 C 
ATOM     25  O   ASP A   7      55.389  68.870 -25.567  0.00  0.00    -0.273 OA
BRANCH  24  26
ATOM     26  CA  ASP A   7      56.204  70.699 -24.271  0.00  0.00    +0.176 C 
BRANCH  26  27
ATOM     27  N   ASP A   7      54.786  70.890 -24.036  0.00  0.00    -0.295 N 
ATOM     28  C   GLY A   6      54.155  70.169 -23.115  0.00  0.00    +0.241 C 
ATOM     29  O   GLY A   6      54.725  69.343 -22.399  0.00  0.00    -0.273 OA
ATOM     30  H   ASP A   7      54.260  71.595 -24.591  0.00  0.00    +0.150 HD
BRANCH  28  31
ATOM     31  CA  GLY A   6      52.654  70.409 -23.002  0.00  0.00    +0.149 C 
BRANCH  31  32
ATOM     32  N   GLY A   6      52.020  69.255 -23.627  0.00  0.00    -0.297 N 
ATOM     33  H   GLY A   6      51.859  68.390 -23.072  0.00  0.00    +0.150 HD
ATOM     34  C   GLN A   5      51.647  69.300 -24.899  0.00  0.00    +0.243 C 
ATOM     35  O   GLN A   5      51.767  70.312 -25.590  0.00  0.00    -0.273 OA
BRANCH  34  36
ATOM     36  CA  GLN A   5      51.025  68.047 -25.484  0.00  0.00    +0.176 C 
BRANCH  36  37
ATOM     37  N   GLN A   5      50.360  68.399 -26.721  0.00  0.00    -0.295 N 
ATOM     38  H   GLN A   5      50.365  69.390 -27.035  0.00  0.00    +0.150 HD
ATOM     39  C   TRP A   4      49.743  67.486 -27.466  0.00  0.00    +0.241 C 
ATOM     40  O   TRP A   4      49.699  66.289 -27.182  0.00  0.00    -0.273 OA
BRANCH  39  41
ATOM     41  CA  TRP A   4      49.078  68.035 -28.720  0.00  0.00    +0.153 C 
BRANCH  41  42
ATOM     42  N   TRP A   4      48.388  67.051 -29.549  0.00  0.00    -0.297 N 
ATOM     43  H   TRP A   4      48.089  66.143 -29.139  0.00  0.00    +0.150 HD
ATOM     44  C   SER A   3      48.142  67.317 -30.829  0.00  0.00    +0.243 C 
ATOM     45  O   SER A   3      48.478  68.379 -31.353  0.00  0.00    -0.273 OA
BRANCH  44  46
ATOM     46  CA  SER A   3      47.398  66.252 -31.647  0.00  0.00    +0.178 C 
BRANCH  46  47
ATOM     47  N   SER A   3      48.110  64.992 -31.857  0.00  0.00    -0.295 N 
ATOM     48  H   SER A   3      48.340  64.392 -31.039  0.00  0.00    +0.150 HD
ATOM     49  C   VAL A   2      48.469  64.599 -33.078  0.00  0.00    +0.241 C 
ATOM     50  O   VAL A   2      48.270  65.281 -34.085  0.00  0.00    -0.273 OA
BRANCH  49  51
ATOM     51  CA  VAL A   2      49.166  63.242 -33.191  0.00  0.00    +0.148 C 
BRANCH  51  52
ATOM     52  N   VAL A   2      48.342  62.385 -34.047  0.00  0.00    -0.297 N 
ATOM     53  C   ILE A   1      47.065  62.153 -33.755  0.00  0.00    +0.238 C 
ATOM     54  O   ILE A   1      46.520  62.613 -32.748  0.00  0.00    -0.274 OA
ATOM     55  H   VAL A   2      48.761  61.952 -34.895  0.00  0.00    +0.150 HD
BRANCH  53  56
ATOM     56  CA  ILE A   1      46.276  61.256 -34.711  0.00  0.00    +0.145 C 
BRANCH  56  57
ATOM     57  N   ILE A   1      45.676  60.234 -33.866  0.00  0.00    -0.238 NA
ATOM     58  H   ILE A   1      45.129  60.538 -33.035  0.00  0.00    +0.142 HD
ENDBRANCH  56  57
BRANCH  56  59
ATOM     59  CB  ILE A   1      45.193  62.110 -35.421  0.00  0.00    +0.025 C 
ATOM     60  CG2 ILE A   1      45.851  63.232 -36.226  0.00  0.00    +0.002 C 
BRANCH  59  61
ATOM     61  CG1 ILE A   1      44.347  61.223 -36.340  0.00  0.00    +0.002 C 
ATOM     62  CD1 ILE A   1      43.117  61.912 -36.909  0.00  0.00    +0.000 C 
ENDBRANCH  59  61
ENDBRANCH  56  59
ENDBRANCH  53  56
ENDBRANCH  51  52
BRANCH  51  63
ATOM     63  CB  VAL A   2      50.573  63.438 -33.793  0.00  0.00    +0.027 C 
ATOM     64  CG2 VAL A   2      51.425  64.293 -32.869  0.00  0.00    +0.002 C 
ATOM     65  CG1 VAL A   2      51.229  62.080 -34.026  0.00  0.00    +0.002 C 
ENDBRANCH  51  63
ENDBRANCH  49  51
ENDBRANCH  46  47
BRANCH  46  66
ATOM     66  CB  SER A   3      46.039  65.959 -30.999  0.00  0.00    +0.166 C 
BRANCH  66  67
ATOM     67  OG  SER A   3      45.232  67.123 -30.910  0.00  0.00    -0.380 OA
ATOM     68  H   SER A   3      45.071  67.482 -31.819  0.00  0.00    +0.211 HD
ENDBRANCH  66  67
ENDBRANCH  46  66
ENDBRANCH  44  46
ENDBRANCH  41  42
BRANCH  41  69
ATOM     69  CB  TRP A   4      48.117  69.164 -28.305  0.00  0.00    +0.057 C 
BRANCH  69  70
ATOM     70  CG  TRP A   4      46.927  68.726 -27.475  0.00  0.00    -0.002 A 
ATOM     71  CD2 TRP A   4      46.804  68.773 -26.042  0.00  0.00    +0.013 A 
ATOM     72  CE3 TRP A   4      47.650  69.192 -25.004  0.00  0.00    +0.001 A 
ATOM     73  CZ3 TRP A   4      47.196  69.094 -23.687  0.00  0.00    +0.000 A 
ATOM     74  CH2 TRP A   4      45.917  68.586 -23.396  0.00  0.00    +0.001 A 
ATOM     75  CZ2 TRP A   4      45.070  68.168 -24.392  0.00  0.00    +0.017 A 
ATOM     76  CE2 TRP A   4      45.526  68.266 -25.715  0.00  0.00    +0.056 A 
ATOM     77  NE1 TRP A   4      44.905  67.930 -26.890  0.00  0.00    -0.352 N 
ATOM     78  HE1 TRP A   4      43.949  67.530 -26.975  0.00  0.00    +0.166 HD
ATOM     79  CD1 TRP A   4      45.751  68.207 -27.939  0.00  0.00    +0.068 A 
ENDBRANCH  69  70
ENDBRANCH  41  69
ENDBRANCH  39  41
ENDBRANCH  36  37
ENDBRANCH  34  36
ENDBRANCH  31  32
BRANCH  31  80
ATOM     80  CB  GLY A   6      52.202  70.536 -21.544  0.00  0.00    +0.041 C 
BRANCH  80  81
ATOM     81  CG  GLY A   6      50.727  70.931 -21.420  0.00  0.00    +0.116 C 
BRANCH  81  82
ATOM     82  CD  GLY A   6      50.251  71.030 -19.985  0.00  0.00    +0.365 C 
ATOM     83  OE2 GLY A   6      50.920  71.711 -19.180  0.00  0.00    -0.246 OA
ATOM     84  OE1 GLY A   6      49.202  70.433 -19.664  0.00  0.00    -0.246 OA
ENDBRANCH  81  82
ENDBRANCH  80  81
ENDBRANCH  31  80
ENDBRANCH  28  31
ENDBRANCH  26  27
ENDBRANCH  24  26
ENDBRANCH   1  22
BRANCH   1  85
ATOM     85  CB  SER A   8      58.460  67.574 -26.833  0.00  0.00    +0.098 C 
BRANCH  85  86
ATOM     86  SG  SER A   8      57.523  68.483 -28.091  0.00  0.00    -0.080 S 
BRANCH  86  87
ATOM     87  SG  TRP A   4      58.665  68.323 -29.763  0.00  0.00    -0.080 S 
BRANCH  87  88
ATOM     88  CB  TRP A   4      58.089  66.786 -30.565  0.00  0.00    +0.098 C 
BRANCH  88  89
ATOM     89  CA  TRP A   4      56.583  66.631 -30.837  0.00  0.00    +0.160 C 
BRANCH  89  92
ATOM     90  C   SER A   3      56.182  64.397 -30.063  0.00  0.00    +0.243 C 
ATOM     91  O   SER A   3      56.268  64.798 -28.900  0.00  0.00    -0.273 OA
ATOM     92  N   TRP A   4      56.304  65.223 -31.092  0.00  0.00    -0.296 N 
ATOM     93  H   TRP A   4      56.202  64.872 -32.066  0.00  0.00    +0.150 HD
BRANCH  90  94
ATOM     94  CA  SER A   3      55.936  62.915 -30.345  0.00  0.00    +0.178 C 
BRANCH  94  96
ATOM     95  C   VAL A   2      57.172  61.980 -28.489  0.00  0.00    +0.241 C 
ATOM     96  N   SER A   3      56.003  62.333 -29.015  0.00  0.00    -0.295 N 
ATOM     97  H   SER A   3      55.129  62.191 -28.470  0.00  0.00    +0.150 HD
ATOM     98  O   VAL A   2      58.231  62.035 -29.116  0.00  0.00    -0.273 OA
BRANCH  95  99
ATOM     99  CA  VAL A   2      57.149  61.460 -27.053  0.00  0.00    +0.160 C 
BRANCH  99 102
ATOM    100  C   ILE A   1      58.635  60.245 -25.571  0.00  0.00    +0.238 C 
ATOM    101  O   ILE A   1      57.776  60.198 -24.690  0.00  0.00    -0.274 OA
ATOM    102  N   VAL A   2      58.418  60.806 -26.759  0.00  0.00    -0.297 N 
ATOM    103  H   VAL A   2      59.162  60.777 -27.485  0.00  0.00    +0.150 HD
BRANCH 100 104
ATOM    104  CA  ILE A   1      60.014  59.629 -25.344  0.00  0.00    +0.145 C 
BRANCH 104 105
ATOM    105  N   ILE A   1      60.573  60.146 -24.095  0.00  0.00    -0.238 NA
ATOM    106  H   ILE A   1      59.967  60.175 -23.250  0.00  0.00    +0.142 HD
ENDBRANCH 104 105
BRANCH 104 107
ATOM    107  CB  ILE A   1      59.891  58.107 -25.276  0.00  0.00    +0.026 C 
BRANCH 107 108
ATOM    108  CG  ILE A   1      61.209  57.376 -25.068  0.00  0.00    -0.000 C 
BRANCH 108 109
ATOM    109  CD  ILE A   1      60.986  55.870 -25.021  0.00  0.00    -0.024 C 
BRANCH 109 110
ATOM    110  CE  ILE A   1      62.302  55.117 -24.899  0.00  0.00    -0.086 C 
BRANCH 110 111
ATOM    111  NZ  ILE A   1      62.103  53.639 -24.915  0.00  0.00    +0.380 N 
ATOM    112  HZ1 ILE A   1      61.495  53.364 -24.117  0.00  0.00    -0.089 HD
ATOM    113  HZ2 ILE A   1      63.025  53.165 -24.830  0.00  0.00    -0.089 HD
ATOM    114  HZ3 ILE A   1      61.651  53.361 -25.809  0.00  0.00    -0.089 HD
ENDBRANCH 110 111
ENDBRANCH 109 110
ENDBRANCH 108 109
ENDBRANCH 107 108
ENDBRANCH 104 107
ENDBRANCH 100 104
ENDBRANCH  99 102
BRANCH  99 115
ATOM    115  CB  VAL A   2      56.986  62.644 -26.087  0.00  0.00    +0.143 C 
BRANCH 115 116
ATOM    116  CG  VAL A   2      55.587  63.224 -26.083  0.00  0.00    +0.367 C 
ATOM    117  OD2 VAL A   2      55.392  64.273 -25.433  0.00  0.00    -0.246 OA
ATOM    118  OD1 VAL A   2      54.685  62.640 -26.712  0.00  0.00    -0.246 OA
ENDBRANCH 115 116
ENDBRANCH  99 115
ENDBRANCH  95  99
ENDBRANCH  94  96
BRANCH  94 119
ATOM    119  CB  SER A   3      54.560  62.675 -30.991  0.00  0.00    +0.166 C 
BRANCH 119 120
ATOM    120  OG  SER A   3      53.499  62.994 -30.112  0.00  0.00    -0.380 OA
ATOM    121  H   SER A   3      53.563  62.430 -29.301  0.00  0.00    +0.211 HD
ENDBRANCH 119 120
ENDBRANCH  94 119
ENDBRANCH  90  94
ENDBRANCH  89  92
BRANCH  89 122
ATOM    122  C   TRP A   4      56.141  67.486 -32.021  0.00  0.00    +0.242 C 
ATOM    123  N   GLN A   5      56.469  68.773 -31.981  0.00  0.00    -0.297 N 
ATOM    124  H   GLN A   5      56.996  69.135 -31.161  0.00  0.00    +0.150 HD
ATOM    125  O   TRP A   4      55.501  66.985 -32.944  0.00  0.00    -0.273 OA
BRANCH 123 126
ATOM    126  CA  GLN A   5      56.110  69.694 -33.056  0.00  0.00    +0.149 C 
BRANCH 126 127
ATOM    127  C   GLN A   5      56.599  69.143 -34.391  0.00  0.00    +0.241 C 
ATOM    128  O   GLN A   5      57.748  68.715 -34.507  0.00  0.00    -0.273 OA
ATOM    129  N   GLY A   6      55.731  69.170 -35.398  0.00  0.00    -0.295 N 
ATOM    130  H   GLY A   6      54.779  69.561 -35.248  0.00  0.00    +0.150 HD
BRANCH 129 131
ATOM    131  CA  GLY A   6      56.101  68.658 -36.706  0.00  0.00    +0.176 C 
BRANCH 131 132
ATOM    132  C   GLY A   6      55.552  67.263 -36.932  0.00  0.00    +0.243 C 
ATOM    133  N   ASP A   7      55.215  66.576 -35.843  0.00  0.00    -0.296 N 
ATOM    134  H   ASP A   7      55.349  67.016 -34.910  0.00  0.00    +0.150 HD
ATOM    135  O   GLY A   6      55.438  66.811 -38.067  0.00  0.00    -0.273 OA
BRANCH 133 136
ATOM    136  CA  ASP A   7      54.663  65.224 -35.913  0.00  0.00    +0.160 C 
BRANCH 136 137
ATOM    137  C   ASP A   7      53.137  65.298 -36.005  0.00  0.00    +0.241 C 
ATOM    138  N   SER A   8      52.582  66.453 -35.642  0.00  0.00    -0.295 N 
ATOM    139  H   SER A   8      53.199  67.233 -35.338  0.00  0.00    +0.150 HD
ATOM    140  O   ASP A   7      52.480  64.330 -36.391  0.00  0.00    -0.273 OA
BRANCH 138 141
ATOM    141  CA  SER A   8      51.135  66.662 -35.656  0.00  0.00    +0.178 C 
BRANCH 141 142
ATOM    142  C   SER A   8      50.454  66.170 -36.929  0.00  0.00    +0.243 C 
ATOM    143  N   GLY A   9      49.296  65.536 -36.759  0.00  0.00    -0.295 N 
ATOM    144  H   GLY A   9      48.921  65.407 -35.798  0.00  0.00    +0.150 HD
ATOM    145  O   SER A   8      50.958  66.372 -38.032  0.00  0.00    -0.273 OA
BRANCH 143 146
ATOM    146  CA  GLY A   9      48.547  65.021 -37.891  0.00  0.00    +0.176 C 
BRANCH 146 147
ATOM    147  C   GLY A   9      48.944  63.599 -38.231  0.00  0.00    +0.243 C 
ATOM    148  N   GLY A  10      50.104  63.192 -37.722  0.00  0.00    -0.296 N 
ATOM    149  H   GLY A  10      50.649  63.849 -37.128  0.00  0.00    +0.150 HD
ATOM    150  O   GLY A   9      48.215  62.890 -38.930  0.00  0.00    -0.273 OA
BRANCH 148 151
ATOM    151  CA  GLY A  10      50.637  61.863 -37.966  0.00  0.00    +0.163 C 
BRANCH 151 152
ATOM    152  C   GLY A  10      49.866  60.717 -37.340  0.00  0.00    +0.229 C 
ATOM    153  O   GLY A  10      49.016  60.925 -36.471  0.00  0.00    -0.286 OA
ENDBRANCH 151 152
ENDBRANCH 148 151
ENDBRANCH 146 147
ENDBRANCH 143 146
ENDBRANCH 141 142
BRANCH 141 154
ATOM    154  CB  SER A   8      50.818  68.146 -35.449  0.00  0.00    +0.166 C 
BRANCH 154 155
ATOM    155  OG  SER A   8      51.246  68.579 -34.167  0.00  0.00    -0.380 OA
ATOM    156  H   SER A   8      51.031  69.539 -34.056  0.00  0.00    +0.211 HD
ENDBRANCH 154 155
ENDBRANCH 141 154
ENDBRANCH 138 141
ENDBRANCH 136 137
BRANCH 136 157
ATOM    157  CB  ASP A   7      55.049  64.428 -34.657  0.00  0.00    +0.143 C 
BRANCH 157 158
ATOM    158  CG  ASP A   7      56.521  64.042 -34.625  0.00  0.00    +0.367 C 
ATOM    159  OD2 ASP A   7      57.096  63.996 -33.516  0.00  0.00    -0.246 OA
ATOM    160  OD1 ASP A   7      57.098  63.762 -35.692  0.00  0.00    -0.246 OA
ENDBRANCH 157 158
ENDBRANCH 136 157
ENDBRANCH 133 136
ENDBRANCH 131 132
ENDBRANCH 129 131
ENDBRANCH 126 127
BRANCH 126 161
ATOM    161  CB  GLN A   5      56.753  71.057 -32.813  0.00  0.00    +0.039 C 
BRANCH 161 162
ATOM    162  CG  GLN A   5      56.450  71.647 -31.457  0.00  0.00    +0.087 C 
BRANCH 162 163
ATOM    163  CD  GLN A   5      57.503  72.648 -31.027  0.00  0.00    +0.219 C 
ATOM    164  NE2 GLN A   5      57.090  73.895 -30.829  0.00  0.00    -0.329 N 
ATOM    165 HE21 GLN A   5      57.768  74.627 -30.535  0.00  0.00    +0.145 HD
ATOM    166 HE22 GLN A   5      56.089  74.139 -30.968  0.00  0.00    +0.145 HD
ATOM    167  OE1 GLN A   5      58.682  72.301 -30.877  0.00  0.00    -0.275 OA
ENDBRANCH 162 163
ENDBRANCH 161 162
ENDBRANCH 126 161
ENDBRANCH 123 126
ENDBRANCH  89 122
ENDBRANCH  88  89
ENDBRANCH  87  88
ENDBRANCH  86  87
ENDBRANCH  85  86
ENDBRANCH   1  85
TORSDOF 74
REMARK  Name = ../refined-set-2016/1v2s/1v2s_pocket.pdb
REMARK  122 active torsions:
REMARK  status: ('A' for Active; 'I' for Inactive)
REMARK    1  A    between atoms: _1  and  _5
REMARK    2  A    between atoms: _5  and  _6
REMARK    3  A    between atoms: _5  and  _8
REMARK    4  A    between atoms: _8  and  _9
REMARK    5  A    between atoms: _12  and  _14
REMARK    6  A    between atoms: _14  and  _15
REMARK    7  A    between atoms: _14  and  _17
REMARK    8  A    between atoms: _20  and  _22
REMARK    9  A    between atoms: _22  and  _23
REMARK   10  A    between atoms: _22  and  _25
REMARK   11  A    between atoms: _25  and  _26
REMARK   12  A    between atoms: _31  and  _33
REMARK   13  A    between atoms: _33  and  _34
REMARK   14  A    between atoms: _33  and  _36
REMARK   15  A    between atoms: _36  and  _37
REMARK   16  A    between atoms: _40  and  _42
REMARK   17  A    between atoms: _42  and  _43
REMARK   18  A    between atoms: _42  and  _45
REMARK   19  A    between atoms: _45  and  _46
REMARK   20  A    between atoms: _49  and  _51
REMARK   21  A    between atoms: _51  and  _52
REMARK   22  A    between atoms: _51  and  _54
REMARK   23  A    between atoms: _54  and  _55
REMARK   24  A    between atoms: _60  and  _62
REMARK   25  A    between atoms: _62  and  _63
REMARK   26  A    between atoms: _62  and  _65
REMARK   27  A    between atoms: _65  and  _66
REMARK   28  A    between atoms: _71  and  _72
REMARK   29  A    between atoms: _74  and  _76
REMARK   30  A    between atoms: _76  and  _77
REMARK   31  A    between atoms: _80  and  _82
REMARK   32  A    between atoms: _82  and  _83
REMARK   33  A    between atoms: _82  and  _85
REMARK   34  A    between atoms: _85  and  _86
REMARK   35  A    between atoms: _86  and  _87
REMARK   36  A    between atoms: _87  and  _88
REMARK   37  A    between atoms: _88  and  _89
REMARK   38  A    between atoms: _93  and  _95
REMARK   39  A    between atoms: _95  and  _96
REMARK   40  A    between atoms: _95  and  _98
REMARK   41  A    between atoms: _98  and  _99
REMARK   42  A    between atoms: _102  and  _104
REMARK   43  A    between atoms: _104  and  _105
REMARK   44  A    between atoms: _104  and  _107
REMARK   45  A    between atoms: _107  and  _108
REMARK   46  A    between atoms: _110  and  _112
REMARK   47  A    between atoms: _112  and  _113
REMARK   48  A    between atoms: _112  and  _115
REMARK   49  A    between atoms: _115  and  _116
REMARK   50  A    between atoms: _116  and  _228
REMARK   51  A    between atoms: _117  and  _119
REMARK   52  A    between atoms: _119  and  _120
REMARK   53  A    between atoms: _119  and  _122
REMARK   54  A    between atoms: _122  and  _123
REMARK   55  A    between atoms: _123  and  _124
REMARK   56  A    between atoms: _129  and  _131
REMARK   57  A    between atoms: _131  and  _132
REMARK   58  A    between atoms: _134  and  _136
REMARK   59  A    between atoms: _136  and  _137
REMARK   60  A    between atoms: _136  and  _139
REMARK   61  A    between atoms: _139  and  _140
REMARK   62  A    between atoms: _143  and  _145
REMARK   63  A    between atoms: _145  and  _146
REMARK   64  A    between atoms: _145  and  _148
REMARK   65  A    between atoms: _148  and  _149
REMARK   66  A    between atoms: _151  and  _153
REMARK   67  A    between atoms: _153  and  _154
REMARK   68  A    between atoms: _156  and  _158
REMARK   69  A    between atoms: _158  and  _159
REMARK   70  A    between atoms: _161  and  _163
REMARK   71  A    between atoms: _163  and  _164
REMARK   72  A    between atoms: _163  and  _166
REMARK   73  A    between atoms: _166  and  _167
REMARK   74  A    between atoms: _170  and  _172
REMARK   75  A    between atoms: _172  and  _173
REMARK   76  A    between atoms: _172  and  _175
REMARK   77  A    between atoms: _178  and  _180
REMARK   78  A    between atoms: _180  and  _181
REMARK   79  A    between atoms: _180  and  _183
REMARK   80  A    between atoms: _183  and  _184
REMARK   81  A    between atoms: _186  and  _188
REMARK   82  A    between atoms: _188  and  _189
REMARK   83  A    between atoms: _188  and  _191
REMARK   84  A    between atoms: _191  and  _192
REMARK   85  A    between atoms: _202  and  _204
REMARK   86  A    between atoms: _204  and  _205
REMARK   87  A    between atoms: _207  and  _209
REMARK   88  A    between atoms: _209  and  _210
REMARK   89  A    between atoms: _209  and  _212
REMARK   90  A    between atoms: _212  and  _213
REMARK   91  A    between atoms: _213  and  _214
REMARK   92  A    between atoms: _217  and  _219
REMARK   93  A    between atoms: _219  and  _220
REMARK   94  A    between atoms: _222  and  _224
REMARK   95  A    between atoms: _224  and  _225
REMARK   96  A    between atoms: _224  and  _227
REMARK   97  A    between atoms: _227  and  _228
REMARK   98  A    between atoms: _229  and  _231
REMARK   99  A    between atoms: _231  and  _232
REMARK  100  A    between atoms: _235  and  _237
REMARK  101  A    between atoms: _237  and  _238
REMARK  102  A    between atoms: _237  and  _240
REMARK  103  A    between atoms: _240  and  _241
REMARK  104  A    between atoms: _241  and  _242
REMARK  105  A    between atoms: _247  and  _249
REMARK  106  A    between atoms: _249  and  _250
REMARK  107  A    between atoms: _249  and  _252
REMARK  108  A    between atoms: _252  and  _253
REMARK  109  A    between atoms: _253  and  _254
REMARK  110  A    between atoms: _254  and  _255
REMARK  111  A    between atoms: _255  and  _256
REMARK  112  A    between atoms: _261  and  _262
REMARK  113  A    between atoms: _267  and  _269
REMARK  114  A    between atoms: _269  and  _270
REMARK  115  A    between atoms: _272  and  _274
REMARK  116  A    between atoms: _274  and  _275
REMARK  117  A    between atoms: _274  and  _277
REMARK  118  A    between atoms: _280  and  _282
REMARK  119  A    between atoms: _282  and  _283
REMARK  120  A    between atoms: _282  and  _285
REMARK  121  A    between atoms: _285  and  _286
REMARK  122  A    between atoms: _291  and  _292
REMARK                            x       y       z     vdW  Elec       q    Type
REMARK                         _______ _______ _______ _____ _____    ______ ____
ROOT
ATOM      1  C   GLY A   3      49.687  62.878 -25.503  0.00  0.00    +0.243 C 
ATOM      2  O   GLY A   3      49.198  61.872 -24.982  0.00  0.00    -0.273 OA
ATOM      3  N   VAL A   4      48.955  63.790 -26.136  0.00  0.00    -0.297 N 
ATOM      4  H   VAL A   4      49.428  64.619 -26.551  0.00  0.00    +0.150 HD
ENDROOT
BRANCH   1   5
ATOM      5  CA  GLY A   3      51.181  63.147 -25.458  0.00  0.00    +0.176 C 
BRANCH   5   8
ATOM      6  C   PRO A   2      51.755  63.105 -23.111  0.00  0.00    +0.241 C 
ATOM      7  O   PRO A   2      51.043  64.081 -22.889  0.00  0.00    -0.273 OA
ATOM      8  N   GLY A   3      51.885  62.575 -24.322  0.00  0.00    -0.295 N 
ATOM      9  H   GLY A   3      52.495  61.744 -24.459  0.00  0.00    +0.150 HD
BRANCH   6  15
ATOM     10  C   LYS A   1      53.236  64.341 -20.651  0.00  0.00    +0.241 C 
ATOM     11  N   PRO A   2      52.490  63.231 -20.745  0.00  0.00    -0.272 N 
ATOM     12  CD  PRO A   2      51.726  62.531 -19.698  0.00  0.00    +0.094 C 
ATOM     13  CG  PRO A   2      50.995  61.480 -20.485  0.00  0.00    +0.024 C 
ATOM     14  CB  PRO A   2      51.966  61.096 -21.556  0.00  0.00    +0.031 C 
ATOM     15  CA  PRO A   2      52.545  62.441 -21.981  0.00  0.00    +0.152 C 
ATOM     16  O   LYS A   1      53.967  64.709 -21.572  0.00  0.00    -0.273 OA
BRANCH  10  17
ATOM     17  CA  LYS A   1      53.158  65.152 -19.354  0.00  0.00    +0.145 C 
BRANCH  17  18
ATOM     18  N   LYS A   1      53.900  64.575 -18.231  0.00  0.00    -0.238 NA
ATOM     19  H   LYS A   1      54.899  64.318 -18.360  0.00  0.00    +0.142 HD
ENDBRANCH  17  18
BRANCH  17  20
ATOM     20  CB  LYS A   1      53.688  66.560 -19.644  0.00  0.00    +0.026 C 
BRANCH  20  21
ATOM     21  CG  LYS A   1      53.871  67.453 -18.425  0.00  0.00    -0.000 C 
BRANCH  21  22
ATOM     22  CD  LYS A   1      52.596  68.181 -18.054  0.00  0.00    -0.024 C 
BRANCH  22  23
ATOM     23  CE  LYS A   1      52.876  69.259 -17.014  0.00  0.00    -0.086 C 
BRANCH  23  24
ATOM     24  NZ  LYS A   1      51.662  70.072 -16.715  0.00  0.00    +0.380 N 
ATOM     25  HZ1 LYS A   1      51.896  70.793 -16.003  0.00  0.00    -0.089 HD
ATOM     26  HZ2 LYS A   1      50.912  69.451 -16.348  0.00  0.00    -0.089 HD
ATOM     27  HZ3 LYS A   1      51.334  70.536 -17.586  0.00  0.00    -0.089 HD
ENDBRANCH  23  24
ENDBRANCH  22  23
ENDBRANCH  21  22
ENDBRANCH  20  21
ENDBRANCH  17  20
ENDBRANCH  10  17
ENDBRANCH   6  15
ENDBRANCH   5   8
ENDBRANCH   1   5
BRANCH   3  28
ATOM     28  CA  VAL A   4      47.510  63.661 -26.265  0.00  0.00    +0.149 C 
BRANCH  28  29
ATOM     29  C   VAL A   4      47.184  63.441 -27.737  0.00  0.00    +0.241 C 
ATOM     30  N   TYR A   5      46.341  62.453 -28.001  0.00  0.00    -0.298 N 
ATOM     31  H   TYR A   5      45.917  61.921 -27.214  0.00  0.00    +0.150 HD
ATOM     32  O   VAL A   4      47.682  64.152 -28.616  0.00  0.00    -0.273 OA
BRANCH  30  33
ATOM     33  CA  TYR A   5      45.999  62.099 -29.363  0.00  0.00    +0.141 C 
BRANCH  33  34
ATOM     34  C   TYR A   5      44.506  62.067 -29.631  0.00  0.00    +0.227 C 
ATOM     35  O   TYR A   5      43.712  61.739 -28.752  0.00  0.00    -0.286 OA
ENDBRANCH  33  34
BRANCH  33  36
ATOM     36  CB  TYR A   5      46.599  60.729 -29.673  0.00  0.00    +0.054 C 
BRANCH  36  37
ATOM     37  CG  TYR A   5      48.094  60.686 -29.480  0.00  0.00    -0.020 A 
ATOM     38  CD2 TYR A   5      48.649  60.424 -28.226  0.00  0.00    -0.001 A 
ATOM     39  CE2 TYR A   5      50.031  60.448 -28.031  0.00  0.00    +0.036 A 
ATOM     40  CZ  TYR A   5      50.864  60.734 -29.105  0.00  0.00    +0.134 A 
ATOM     41  CE1 TYR A   5      50.331  60.990 -30.356  0.00  0.00    +0.036 A 
ATOM     42  CD1 TYR A   5      48.957  60.967 -30.538  0.00  0.00    -0.001 A 
BRANCH  40  43
ATOM     43  OH  TYR A   5      52.227  60.784 -28.936  0.00  0.00    -0.506 OA
ATOM     44  HH  TYR A   5      52.551  59.906 -28.614  0.00  0.00    +0.292 HD
ENDBRANCH  40  43
ENDBRANCH  36  37
ENDBRANCH  33  36
ENDBRANCH  30  33
ENDBRANCH  28  29
BRANCH  28  45
ATOM     45  CB  VAL A   4      46.797  64.919 -25.738  0.00  0.00    +0.027 C 
ATOM     46  CG2 VAL A   4      47.238  65.190 -24.308  0.00  0.00    +0.002 C 
ATOM     47  CG1 VAL A   4      45.293  64.732 -25.797  0.00  0.00    +0.002 C 
ENDBRANCH  28  45
ENDBRANCH   3  28
TORSDOF 18
REMARK  Name = ../refined-set-2016/1v2s/1v2s_pocket.pdb
REMARK  122 active torsions:
REMARK  status: ('A' for Active; 'I' for Inactive)
REMARK    1  A    between atoms: _1  and  _5
REMARK    2  A    between atoms: _5  and  _6
REMARK    3  A    between atoms: _5  and  _8
REMARK    4  A    between atoms: _8  and  _9
REMARK    5  A    between atoms: _12  and  _14
REMARK    6  A    between atoms: _14  and  _15
REMARK    7  A    between atoms: _14  and  _17
REMARK    8  A    between atoms: _20  and  _22
REMARK    9  A    between atoms: _22  and  _23
REMARK   10  A    between atoms: _22  and  _25
REMARK   11  A    between atoms: _25  and  _26
REMARK   12  A    between atoms: _31  and  _33
REMARK   13  A    between atoms: _33  and  _34
REMARK   14  A    between atoms: _33  and  _36
REMARK   15  A    between atoms: _36  and  _37
REMARK   16  A    between atoms: _40  and  _42
REMARK   17  A    between atoms: _42  and  _43
REMARK   18  A    between atoms: _42  and  _45
REMARK   19  A    between atoms: _45  and  _46
REMARK   20  A    between atoms: _49  and  _51
REMARK   21  A    between atoms: _51  and  _52
REMARK   22  A    between atoms: _51  and  _54
REMARK   23  A    between atoms: _54  and  _55
REMARK   24  A    between atoms: _60  and  _62
REMARK   25  A    between atoms: _62  and  _63
REMARK   26  A    between atoms: _62  and  _65
REMARK   27  A    between atoms: _65  and  _66
REMARK   28  A    between atoms: _71  and  _72
REMARK   29  A    between atoms: _74  and  _76
REMARK   30  A    between atoms: _76  and  _77
REMARK   31  A    between atoms: _80  and  _82
REMARK   32  A    between atoms: _82  and  _83
REMARK   33  A    between atoms: _82  and  _85
REMARK   34  A    between atoms: _85  and  _86
REMARK   35  A    between atoms: _86  and  _87
REMARK   36  A    between atoms: _87  and  _88
REMARK   37  A    between atoms: _88  and  _89
REMARK   38  A    between atoms: _93  and  _95
REMARK   39  A    between atoms: _95  and  _96
REMARK   40  A    between atoms: _95  and  _98
REMARK   41  A    between atoms: _98  and  _99
REMARK   42  A    between atoms: _102  and  _104
REMARK   43  A    between atoms: _104  and  _105
REMARK   44  A    between atoms: _104  and  _107
REMARK   45  A    between atoms: _107  and  _108
REMARK   46  A    between atoms: _110  and  _112
REMARK   47  A    between atoms: _112  and  _113
REMARK   48  A    between atoms: _112  and  _115
REMARK   49  A    between atoms: _115  and  _116
REMARK   50  A    between atoms: _116  and  _228
REMARK   51  A    between atoms: _117  and  _119
REMARK   52  A    between atoms: _119  and  _120
REMARK   53  A    between atoms: _119  and  _122
REMARK   54  A    between atoms: _122  and  _123
REMARK   55  A    between atoms: _123  and  _124
REMARK   56  A    between atoms: _129  and  _131
REMARK   57  A    between atoms: _131  and  _132
REMARK   58  A    between atoms: _134  and  _136
REMARK   59  A    between atoms: _136  and  _137
REMARK   60  A    between atoms: _136  and  _139
REMARK   61  A    between atoms: _139  and  _140
REMARK   62  A    between atoms: _143  and  _145
REMARK   63  A    between atoms: _145  and  _146
REMARK   64  A    between atoms: _145  and  _148
REMARK   65  A    between atoms: _148  and  _149
REMARK   66  A    between atoms: _151  and  _153
REMARK   67  A    between atoms: _153  and  _154
REMARK   68  A    between atoms: _156  and  _158
REMARK   69  A    between atoms: _158  and  _159
REMARK   70  A    between atoms: _161  and  _163
REMARK   71  A    between atoms: _163  and  _164
REMARK   72  A    between atoms: _163  and  _166
REMARK   73  A    between atoms: _166  and  _167
REMARK   74  A    between atoms: _170  and  _172
REMARK   75  A    between atoms: _172  and  _173
REMARK   76  A    between atoms: _172  and  _175
REMARK   77  A    between atoms: _178  and  _180
REMARK   78  A    between atoms: _180  and  _181
REMARK   79  A    between atoms: _180  and  _183
REMARK   80  A    between atoms: _183  and  _184
REMARK   81  A    between atoms: _186  and  _188
REMARK   82  A    between atoms: _188  and  _189
REMARK   83  A    between atoms: _188  and  _191
REMARK   84  A    between atoms: _191  and  _192
REMARK   85  A    between atoms: _202  and  _204
REMARK   86  A    between atoms: _204  and  _205
REMARK   87  A    between atoms: _207  and  _209
REMARK   88  A    between atoms: _209  and  _210
REMARK   89  A    between atoms: _209  and  _212
REMARK   90  A    between atoms: _212  and  _213
REMARK   91  A    between atoms: _213  and  _214
REMARK   92  A    between atoms: _217  and  _219
REMARK   93  A    between atoms: _219  and  _220
REMARK   94  A    between atoms: _222  and  _224
REMARK   95  A    between atoms: _224  and  _225
REMARK   96  A    between atoms: _224  and  _227
REMARK   97  A    between atoms: _227  and  _228
REMARK   98  A    between atoms: _229  and  _231
REMARK   99  A    between atoms: _231  and  _232
REMARK  100  A    between atoms: _235  and  _237
REMARK  101  A    between atoms: _237  and  _238
REMARK  102  A    between atoms: _237  and  _240
REMARK  103  A    between atoms: _240  and  _241
REMARK  104  A    between atoms: _241  and  _242
REMARK  105  A    between atoms: _247  and  _249
REMARK  106  A    between atoms: _249  and  _250
REMARK  107  A    between atoms: _249  and  _252
REMARK  108  A    between atoms: _252  and  _253
REMARK  109  A    between atoms: _253  and  _254
REMARK  110  A    between atoms: _254  and  _255
REMARK  111  A    between atoms: _255  and  _256
REMARK  112  A    between atoms: _261  and  _262
REMARK  113  A    between atoms: _267  and  _269
REMARK  114  A    between atoms: _269  and  _270
REMARK  115  A    between atoms: _272  and  _274
REMARK  116  A    between atoms: _274  and  _275
REMARK  117  A    between atoms: _274  and  _277
REMARK  118  A    between atoms: _280  and  _282
REMARK  119  A    between atoms: _282  and  _283
REMARK  120  A    between atoms: _282  and  _285
REMARK  121  A    between atoms: _285  and  _286
REMARK  122  A    between atoms: _291  and  _292
REMARK                            x       y       z     vdW  Elec       q    Type
REMARK                         _______ _______ _______ _____ _____    ______ ____
ROOT
ATOM      1  O   HOH     1      53.467  60.382 -26.758  0.00  0.00    +0.000 OA
ENDROOT
TORSDOF 0
REMARK  Name = ../refined-set-2016/1v2s/1v2s_pocket.pdb
REMARK  122 active torsions:
REMARK  status: ('A' for Active; 'I' for Inactive)
REMARK    1  A    between atoms: _1  and  _5
REMARK    2  A    between atoms: _5  and  _6
REMARK    3  A    between atoms: _5  and  _8
REMARK    4  A    between atoms: _8  and  _9
REMARK    5  A    between atoms: _12  and  _14
REMARK    6  A    between atoms: _14  and  _15
REMARK    7  A    between atoms: _14  and  _17
REMARK    8  A    between atoms: _20  and  _22
REMARK    9  A    between atoms: _22  and  _23
REMARK   10  A    between atoms: _22  and  _25
REMARK   11  A    between atoms: _25  and  _26
REMARK   12  A    between atoms: _31  and  _33
REMARK   13  A    between atoms: _33  and  _34
REMARK   14  A    between atoms: _33  and  _36
REMARK   15  A    between atoms: _36  and  _37
REMARK   16  A    between atoms: _40  and  _42
REMARK   17  A    between atoms: _42  and  _43
REMARK   18  A    between atoms: _42  and  _45
REMARK   19  A    between atoms: _45  and  _46
REMARK   20  A    between atoms: _49  and  _51
REMARK   21  A    between atoms: _51  and  _52
REMARK   22  A    between atoms: _51  and  _54
REMARK   23  A    between atoms: _54  and  _55
REMARK   24  A    between atoms: _60  and  _62
REMARK   25  A    between atoms: _62  and  _63
REMARK   26  A    between atoms: _62  and  _65
REMARK   27  A    between atoms: _65  and  _66
REMARK   28  A    between atoms: _71  and  _72
REMARK   29  A    between atoms: _74  and  _76
REMARK   30  A    between atoms: _76  and  _77
REMARK   31  A    between atoms: _80  and  _82
REMARK   32  A    between atoms: _82  and  _83
REMARK   33  A    between atoms: _82  and  _85
REMARK   34  A    between atoms: _85  and  _86
REMARK   35  A    between atoms: _86  and  _87
REMARK   36  A    between atoms: _87  and  _88
REMARK   37  A    between atoms: _88  and  _89
REMARK   38  A    between atoms: _93  and  _95
REMARK   39  A    between atoms: _95  and  _96
REMARK   40  A    between atoms: _95  and  _98
REMARK   41  A    between atoms: _98  and  _99
REMARK   42  A    between atoms: _102  and  _104
REMARK   43  A    between atoms: _104  and  _105
REMARK   44  A    between atoms: _104  and  _107
REMARK   45  A    between atoms: _107  and  _108
REMARK   46  A    between atoms: _110  and  _112
REMARK   47  A    between atoms: _112  and  _113
REMARK   48  A    between atoms: _112  and  _115
REMARK   49  A    between atoms: _115  and  _116
REMARK   50  A    between atoms: _116  and  _228
REMARK   51  A    between atoms: _117  and  _119
REMARK   52  A    between atoms: _119  and  _120
REMARK   53  A    between atoms: _119  and  _122
REMARK   54  A    between atoms: _122  and  _123
REMARK   55  A    between atoms: _123  and  _124
REMARK   56  A    between atoms: _129  and  _131
REMARK   57  A    between atoms: _131  and  _132
REMARK   58  A    between atoms: _134  and  _136
REMARK   59  A    between atoms: _136  and  _137
REMARK   60  A    between atoms: _136  and  _139
REMARK   61  A    between atoms: _139  and  _140
REMARK   62  A    between atoms: _143  and  _145
REMARK   63  A    between atoms: _145  and  _146
REMARK   64  A    between atoms: _145  and  _148
REMARK   65  A    between atoms: _148  and  _149
REMARK   66  A    between atoms: _151  and  _153
REMARK   67  A    between atoms: _153  and  _154
REMARK   68  A    between atoms: _156  and  _158
REMARK   69  A    between atoms: _158  and  _159
REMARK   70  A    between atoms: _161  and  _163
REMARK   71  A    between atoms: _163  and  _164
REMARK   72  A    between atoms: _163  and  _166
REMARK   73  A    between atoms: _166  and  _167
REMARK   74  A    between atoms: _170  and  _172
REMARK   75  A    between atoms: _172  and  _173
REMARK   76  A    between atoms: _172  and  _175
REMARK   77  A    between atoms: _178  and  _180
REMARK   78  A    between atoms: _180  and  _181
REMARK   79  A    between atoms: _180  and  _183
REMARK   80  A    between atoms: _183  and  _184
REMARK   81  A    between atoms: _186  and  _188
REMARK   82  A    between atoms: _188  and  _189
REMARK   83  A    between atoms: _188  and  _191
REMARK   84  A    between atoms: _191  and  _192
REMARK   85  A    between atoms: _202  and  _204
REMARK   86  A    between atoms: _204  and  _205
REMARK   87  A    between atoms: _207  and  _209
REMARK   88  A    between atoms: _209  and  _210
REMARK   89  A    between atoms: _209  and  _212
REMARK   90  A    between atoms: _212  and  _213
REMARK   91  A    between atoms: _213  and  _214
REMARK   92  A    between atoms: _217  and  _219
REMARK   93  A    between atoms: _219  and  _220
REMARK   94  A    between atoms: _222  and  _224
REMARK   95  A    between atoms: _224  and  _225
REMARK   96  A    between atoms: _224  and  _227
REMARK   97  A    between atoms: _227  and  _228
REMARK   98  A    between atoms: _229  and  _231
REMARK   99  A    between atoms: _231  and  _232
REMARK  100  A    between atoms: _235  and  _237
REMARK  101  A    between atoms: _237  and  _238
REMARK  102  A    between atoms: _237  and  _240
REMARK  103  A    between atoms: _240  and  _241
REMARK  104  A    between atoms: _241  and  _242
REMARK  105  A    between atoms: _247  and  _249
REMARK  106  A    between atoms: _249  and  _250
REMARK  107  A    between atoms: _249  and  _252
REMARK  108  A    between atoms: _252  and  _253
REMARK  109  A    between atoms: _253  and  _254
REMARK  110  A    between atoms: _254  and  _255
REMARK  111  A    between atoms: _255  and  _256
REMARK  112  A    between atoms: _261  and  _262
REMARK  113  A    between atoms: _267  and  _269
REMARK  114  A    between atoms: _269  and  _270
REMARK  115  A    between atoms: _272  and  _274
REMARK  116  A    between atoms: _274  and  _275
REMARK  117  A    between atoms: _274  and  _277
REMARK  118  A    between atoms: _280  and  _282
REMARK  119  A    between atoms: _282  and  _283
REMARK  120  A    between atoms: _282  and  _285
REMARK  121  A    between atoms: _285  and  _286
REMARK  122  A    between atoms: _291  and  _292
REMARK                            x       y       z     vdW  Elec       q    Type
REMARK                         _______ _______ _______ _____ _____    ______ ____
ROOT
ATOM      1  O   HOH     1      50.565  64.171 -29.262  0.00  0.00    +0.000 OA
ENDROOT
TORSDOF 0
REMARK  Name = ../refined-set-2016/1v2s/1v2s_pocket.pdb
REMARK  122 active torsions:
REMARK  status: ('A' for Active; 'I' for Inactive)
REMARK    1  A    between atoms: _1  and  _5
REMARK    2  A    between atoms: _5  and  _6
REMARK    3  A    between atoms: _5  and  _8
REMARK    4  A    between atoms: _8  and  _9
REMARK    5  A    between atoms: _12  and  _14
REMARK    6  A    between atoms: _14  and  _15
REMARK    7  A    between atoms: _14  and  _17
REMARK    8  A    between atoms: _20  and  _22
REMARK    9  A    between atoms: _22  and  _23
REMARK   10  A    between atoms: _22  and  _25
REMARK   11  A    between atoms: _25  and  _26
REMARK   12  A    between atoms: _31  and  _33
REMARK   13  A    between atoms: _33  and  _34
REMARK   14  A    between atoms: _33  and  _36
REMARK   15  A    between atoms: _36  and  _37
REMARK   16  A    between atoms: _40  and  _42
REMARK   17  A    between atoms: _42  and  _43
REMARK   18  A    between atoms: _42  and  _45
REMARK   19  A    between atoms: _45  and  _46
REMARK   20  A    between atoms: _49  and  _51
REMARK   21  A    between atoms: _51  and  _52
REMARK   22  A    between atoms: _51  and  _54
REMARK   23  A    between atoms: _54  and  _55
REMARK   24  A    between atoms: _60  and  _62
REMARK   25  A    between atoms: _62  and  _63
REMARK   26  A    between atoms: _62  and  _65
REMARK   27  A    between atoms: _65  and  _66
REMARK   28  A    between atoms: _71  and  _72
REMARK   29  A    between atoms: _74  and  _76
REMARK   30  A    between atoms: _76  and  _77
REMARK   31  A    between atoms: _80  and  _82
REMARK   32  A    between atoms: _82  and  _83
REMARK   33  A    between atoms: _82  and  _85
REMARK   34  A    between atoms: _85  and  _86
REMARK   35  A    between atoms: _86  and  _87
REMARK   36  A    between atoms: _87  and  _88
REMARK   37  A    between atoms: _88  and  _89
REMARK   38  A    between atoms: _93  and  _95
REMARK   39  A    between atoms: _95  and  _96
REMARK   40  A    between atoms: _95  and  _98
REMARK   41  A    between atoms: _98  and  _99
REMARK   42  A    between atoms: _102  and  _104
REMARK   43  A    between atoms: _104  and  _105
REMARK   44  A    between atoms: _104  and  _107
REMARK   45  A    between atoms: _107  and  _108
REMARK   46  A    between atoms: _110  and  _112
REMARK   47  A    between atoms: _112  and  _113
REMARK   48  A    between atoms: _112  and  _115
REMARK   49  A    between atoms: _115  and  _116
REMARK   50  A    between atoms: _116  and  _228
REMARK   51  A    between atoms: _117  and  _119
REMARK   52  A    between atoms: _119  and  _120
REMARK   53  A    between atoms: _119  and  _122
REMARK   54  A    between atoms: _122  and  _123
REMARK   55  A    between atoms: _123  and  _124
REMARK   56  A    between atoms: _129  and  _131
REMARK   57  A    between atoms: _131  and  _132
REMARK   58  A    between atoms: _134  and  _136
REMARK   59  A    between atoms: _136  and  _137
REMARK   60  A    between atoms: _136  and  _139
REMARK   61  A    between atoms: _139  and  _140
REMARK   62  A    between atoms: _143  and  _145
REMARK   63  A    between atoms: _145  and  _146
REMARK   64  A    between atoms: _145  and  _148
REMARK   65  A    between atoms: _148  and  _149
REMARK   66  A    between atoms: _151  and  _153
REMARK   67  A    between atoms: _153  and  _154
REMARK   68  A    between atoms: _156  and  _158
REMARK   69  A    between atoms: _158  and  _159
REMARK   70  A    between atoms: _161  and  _163
REMARK   71  A    between atoms: _163  and  _164
REMARK   72  A    between atoms: _163  and  _166
REMARK   73  A    between atoms: _166  and  _167
REMARK   74  A    between atoms: _170  and  _172
REMARK   75  A    between atoms: _172  and  _173
REMARK   76  A    between atoms: _172  and  _175
REMARK   77  A    between atoms: _178  and  _180
REMARK   78  A    between atoms: _180  and  _181
REMARK   79  A    between atoms: _180  and  _183
REMARK   80  A    between atoms: _183  and  _184
REMARK   81  A    between atoms: _186  and  _188
REMARK   82  A    between atoms: _188  and  _189
REMARK   83  A    between atoms: _188  and  _191
REMARK   84  A    between atoms: _191  and  _192
REMARK   85  A    between atoms: _202  and  _204
REMARK   86  A    between atoms: _204  and  _205
REMARK   87  A    between atoms: _207  and  _209
REMARK   88  A    between atoms: _209  and  _210
REMARK   89  A    between atoms: _209  and  _212
REMARK   90  A    between atoms: _212  and  _213
REMARK   91  A    between atoms: _213  and  _214
REMARK   92  A    between atoms: _217  and  _219
REMARK   93  A    between atoms: _219  and  _220
REMARK   94  A    between atoms: _222  and  _224
REMARK   95  A    between atoms: _224  and  _225
REMARK   96  A    between atoms: _224  and  _227
REMARK   97  A    between atoms: _227  and  _228
REMARK   98  A    between atoms: _229  and  _231
REMARK   99  A    between atoms: _231  and  _232
REMARK  100  A    between atoms: _235  and  _237
REMARK  101  A    between atoms: _237  and  _238
REMARK  102  A    between atoms: _237  and  _240
REMARK  103  A    between atoms: _240  and  _241
REMARK  104  A    between atoms: _241  and  _242
REMARK  105  A    between atoms: _247  and  _249
REMARK  106  A    between atoms: _249  and  _250
REMARK  107  A    between atoms: _249  and  _252
REMARK  108  A    between atoms: _252  and  _253
REMARK  109  A    between atoms: _253  and  _254
REMARK  110  A    between atoms: _254  and  _255
REMARK  111  A    between atoms: _255  and  _256
REMARK  112  A    between atoms: _261  and  _262
REMARK  113  A    between atoms: _267  and  _269
REMARK  114  A    between atoms: _269  and  _270
REMARK  115  A    between atoms: _272  and  _274
REMARK  116  A    between atoms: _274  and  _275
REMARK  117  A    between atoms: _274  and  _277
REMARK  118  A    between atoms: _280  and  _282
REMARK  119  A    between atoms: _282  and  _283
REMARK  120  A    between atoms: _282  and  _285
REMARK  121  A    between atoms: _285  and  _286
REMARK  122  A    between atoms: _291  and  _292
REMARK                            x       y       z     vdW  Elec       q    Type
REMARK                         _______ _______ _______ _____ _____    ______ ____
ROOT
ATOM      1  O   HOH     1      55.617  66.645 -22.680  0.00  0.00    +0.000 OA
ENDROOT
TORSDOF 0
REMARK  Name = ../refined-set-2016/1v2s/1v2s_pocket.pdb
REMARK  122 active torsions:
REMARK  status: ('A' for Active; 'I' for Inactive)
REMARK    1  A    between atoms: _1  and  _5
REMARK    2  A    between atoms: _5  and  _6
REMARK    3  A    between atoms: _5  and  _8
REMARK    4  A    between atoms: _8  and  _9
REMARK    5  A    between atoms: _12  and  _14
REMARK    6  A    between atoms: _14  and  _15
REMARK    7  A    between atoms: _14  and  _17
REMARK    8  A    between atoms: _20  and  _22
REMARK    9  A    between atoms: _22  and  _23
REMARK   10  A    between atoms: _22  and  _25
REMARK   11  A    between atoms: _25  and  _26
REMARK   12  A    between atoms: _31  and  _33
REMARK   13  A    between atoms: _33  and  _34
REMARK   14  A    between atoms: _33  and  _36
REMARK   15  A    between atoms: _36  and  _37
REMARK   16  A    between atoms: _40  and  _42
REMARK   17  A    between atoms: _42  and  _43
REMARK   18  A    between atoms: _42  and  _45
REMARK   19  A    between atoms: _45  and  _46
REMARK   20  A    between atoms: _49  and  _51
REMARK   21  A    between atoms: _51  and  _52
REMARK   22  A    between atoms: _51  and  _54
REMARK   23  A    between atoms: _54  and  _55
REMARK   24  A    between atoms: _60  and  _62
REMARK   25  A    between atoms: _62  and  _63
REMARK   26  A    between atoms: _62  and  _65
REMARK   27  A    between atoms: _65  and  _66
REMARK   28  A    between atoms: _71  and  _72
REMARK   29  A    between atoms: _74  and  _76
REMARK   30  A    between atoms: _76  and  _77
REMARK   31  A    between atoms: _80  and  _82
REMARK   32  A    between atoms: _82  and  _83
REMARK   33  A    between atoms: _82  and  _85
REMARK   34  A    between atoms: _85  and  _86
REMARK   35  A    between atoms: _86  and  _87
REMARK   36  A    between atoms: _87  and  _88
REMARK   37  A    between atoms: _88  and  _89
REMARK   38  A    between atoms: _93  and  _95
REMARK   39  A    between atoms: _95  and  _96
REMARK   40  A    between atoms: _95  and  _98
REMARK   41  A    between atoms: _98  and  _99
REMARK   42  A    between atoms: _102  and  _104
REMARK   43  A    between atoms: _104  and  _105
REMARK   44  A    between atoms: _104  and  _107
REMARK   45  A    between atoms: _107  and  _108
REMARK   46  A    between atoms: _110  and  _112
REMARK   47  A    between atoms: _112  and  _113
REMARK   48  A    between atoms: _112  and  _115
REMARK   49  A    between atoms: _115  and  _116
REMARK   50  A    between atoms: _116  and  _228
REMARK   51  A    between atoms: _117  and  _119
REMARK   52  A    between atoms: _119  and  _120
REMARK   53  A    between atoms: _119  and  _122
REMARK   54  A    between atoms: _122  and  _123
REMARK   55  A    between atoms: _123  and  _124
REMARK   56  A    between atoms: _129  and  _131
REMARK   57  A    between atoms: _131  and  _132
REMARK   58  A    between atoms: _134  and  _136
REMARK   59  A    between atoms: _136  and  _137
REMARK   60  A    between atoms: _136  and  _139
REMARK   61  A    between atoms: _139  and  _140
REMARK   62  A    between atoms: _143  and  _145
REMARK   63  A    between atoms: _145  and  _146
REMARK   64  A    between atoms: _145  and  _148
REMARK   65  A    between atoms: _148  and  _149
REMARK   66  A    between atoms: _151  and  _153
REMARK   67  A    between atoms: _153  and  _154
REMARK   68  A    between atoms: _156  and  _158
REMARK   69  A    between atoms: _158  and  _159
REMARK   70  A    between atoms: _161  and  _163
REMARK   71  A    between atoms: _163  and  _164
REMARK   72  A    between atoms: _163  and  _166
REMARK   73  A    between atoms: _166  and  _167
REMARK   74  A    between atoms: _170  and  _172
REMARK   75  A    between atoms: _172  and  _173
REMARK   76  A    between atoms: _172  and  _175
REMARK   77  A    between atoms: _178  and  _180
REMARK   78  A    between atoms: _180  and  _181
REMARK   79  A    between atoms: _180  and  _183
REMARK   80  A    between atoms: _183  and  _184
REMARK   81  A    between atoms: _186  and  _188
REMARK   82  A    between atoms: _188  and  _189
REMARK   83  A    between atoms: _188  and  _191
REMARK   84  A    between atoms: _191  and  _192
REMARK   85  A    between atoms: _202  and  _204
REMARK   86  A    between atoms: _204  and  _205
REMARK   87  A    between atoms: _207  and  _209
REMARK   88  A    between atoms: _209  and  _210
REMARK   89  A    between atoms: _209  and  _212
REMARK   90  A    between atoms: _212  and  _213
REMARK   91  A    between atoms: _213  and  _214
REMARK   92  A    between atoms: _217  and  _219
REMARK   93  A    between atoms: _219  and  _220
REMARK   94  A    between atoms: _222  and  _224
REMARK   95  A    between atoms: _224  and  _225
REMARK   96  A    between atoms: _224  and  _227
REMARK   97  A    between atoms: _227  and  _228
REMARK   98  A    between atoms: _229  and  _231
REMARK   99  A    between atoms: _231  and  _232
REMARK  100  A    between atoms: _235  and  _237
REMARK  101  A    between atoms: _237  and  _238
REMARK  102  A    between atoms: _237  and  _240
REMARK  103  A    between atoms: _240  and  _241
REMARK  104  A    between atoms: _241  and  _242
REMARK  105  A    between atoms: _247  and  _249
REMARK  106  A    between atoms: _249  and  _250
REMARK  107  A    between atoms: _249  and  _252
REMARK  108  A    between atoms: _252  and  _253
REMARK  109  A    between atoms: _253  and  _254
REMARK  110  A    between atoms: _254  and  _255
REMARK  111  A    between atoms: _255  and  _256
REMARK  112  A    between atoms: _261  and  _262
REMARK  113  A    between atoms: _267  and  _269
REMARK  114  A    between atoms: _269  and  _270
REMARK  115  A    between atoms: _272  and  _274
REMARK  116  A    between atoms: _274  and  _275
REMARK  117  A    between atoms: _274  and  _277
REMARK  118  A    between atoms: _280  and  _282
REMARK  119  A    between atoms: _282  and  _283
REMARK  120  A    between atoms: _282  and  _285
REMARK  121  A    between atoms: _285  and  _286
REMARK  122  A    between atoms: _291  and  _292
REMARK                            x       y       z     vdW  Elec       q    Type
REMARK                         _______ _______ _______ _____ _____    ______ ____
ROOT
ATOM      1  O   HOH     1      55.302  60.596 -23.655  0.00  0.00    +0.000 OA
ENDROOT
TORSDOF 0
REMARK  Name = ../refined-set-2016/1v2s/1v2s_pocket.pdb
REMARK  122 active torsions:
REMARK  status: ('A' for Active; 'I' for Inactive)
REMARK    1  A    between atoms: _1  and  _5
REMARK    2  A    between atoms: _5  and  _6
REMARK    3  A    between atoms: _5  and  _8
REMARK    4  A    between atoms: _8  and  _9
REMARK    5  A    between atoms: _12  and  _14
REMARK    6  A    between atoms: _14  and  _15
REMARK    7  A    between atoms: _14  and  _17
REMARK    8  A    between atoms: _20  and  _22
REMARK    9  A    between atoms: _22  and  _23
REMARK   10  A    between atoms: _22  and  _25
REMARK   11  A    between atoms: _25  and  _26
REMARK   12  A    between atoms: _31  and  _33
REMARK   13  A    between atoms: _33  and  _34
REMARK   14  A    between atoms: _33  and  _36
REMARK   15  A    between atoms: _36  and  _37
REMARK   16  A    between atoms: _40  and  _42
REMARK   17  A    between atoms: _42  and  _43
REMARK   18  A    between atoms: _42  and  _45
REMARK   19  A    between atoms: _45  and  _46
REMARK   20  A    between atoms: _49  and  _51
REMARK   21  A    between atoms: _51  and  _52
REMARK   22  A    between atoms: _51  and  _54
REMARK   23  A    between atoms: _54  and  _55
REMARK   24  A    between atoms: _60  and  _62
REMARK   25  A    between atoms: _62  and  _63
REMARK   26  A    between atoms: _62  and  _65
REMARK   27  A    between atoms: _65  and  _66
REMARK   28  A    between atoms: _71  and  _72
REMARK   29  A    between atoms: _74  and  _76
REMARK   30  A    between atoms: _76  and  _77
REMARK   31  A    between atoms: _80  and  _82
REMARK   32  A    between atoms: _82  and  _83
REMARK   33  A    between atoms: _82  and  _85
REMARK   34  A    between atoms: _85  and  _86
REMARK   35  A    between atoms: _86  and  _87
REMARK   36  A    between atoms: _87  and  _88
REMARK   37  A    between atoms: _88  and  _89
REMARK   38  A    between atoms: _93  and  _95
REMARK   39  A    between atoms: _95  and  _96
REMARK   40  A    between atoms: _95  and  _98
REMARK   41  A    between atoms: _98  and  _99
REMARK   42  A    between atoms: _102  and  _104
REMARK   43  A    between atoms: _104  and  _105
REMARK   44  A    between atoms: _104  and  _107
REMARK   45  A    between atoms: _107  and  _108
REMARK   46  A    between atoms: _110  and  _112
REMARK   47  A    between atoms: _112  and  _113
REMARK   48  A    between atoms: _112  and  _115
REMARK   49  A    between atoms: _115  and  _116
REMARK   50  A    between atoms: _116  and  _228
REMARK   51  A    between atoms: _117  and  _119
REMARK   52  A    between atoms: _119  and  _120
REMARK   53  A    between atoms: _119  and  _122
REMARK   54  A    between atoms: _122  and  _123
REMARK   55  A    between atoms: _123  and  _124
REMARK   56  A    between atoms: _129  and  _131
REMARK   57  A    between atoms: _131  and  _132
REMARK   58  A    between atoms: _134  and  _136
REMARK   59  A    between atoms: _136  and  _137
REMARK   60  A    between atoms: _136  and  _139
REMARK   61  A    between atoms: _139  and  _140
REMARK   62  A    between atoms: _143  and  _145
REMARK   63  A    between atoms: _145  and  _146
REMARK   64  A    between atoms: _145  and  _148
REMARK   65  A    between atoms: _148  and  _149
REMARK   66  A    between atoms: _151  and  _153
REMARK   67  A    between atoms: _153  and  _154
REMARK   68  A    between atoms: _156  and  _158
REMARK   69  A    between atoms: _158  and  _159
REMARK   70  A    between atoms: _161  and  _163
REMARK   71  A    between atoms: _163  and  _164
REMARK   72  A    between atoms: _163  and  _166
REMARK   73  A    between atoms: _166  and  _167
REMARK   74  A    between atoms: _170  and  _172
REMARK   75  A    between atoms: _172  and  _173
REMARK   76  A    between atoms: _172  and  _175
REMARK   77  A    between atoms: _178  and  _180
REMARK   78  A    between atoms: _180  and  _181
REMARK   79  A    between atoms: _180  and  _183
REMARK   80  A    between atoms: _183  and  _184
REMARK   81  A    between atoms: _186  and  _188
REMARK   82  A    between atoms: _188  and  _189
REMARK   83  A    between atoms: _188  and  _191
REMARK   84  A    between atoms: _191  and  _192
REMARK   85  A    between atoms: _202  and  _204
REMARK   86  A    between atoms: _204  and  _205
REMARK   87  A    between atoms: _207  and  _209
REMARK   88  A    between atoms: _209  and  _210
REMARK   89  A    between atoms: _209  and  _212
REMARK   90  A    between atoms: _212  and  _213
REMARK   91  A    between atoms: _213  and  _214
REMARK   92  A    between atoms: _217  and  _219
REMARK   93  A    between atoms: _219  and  _220
REMARK   94  A    between atoms: _222  and  _224
REMARK   95  A    between atoms: _224  and  _225
REMARK   96  A    between atoms: _224  and  _227
REMARK   97  A    between atoms: _227  and  _228
REMARK   98  A    between atoms: _229  and  _231
REMARK   99  A    between atoms: _231  and  _232
REMARK  100  A    between atoms: _235  and  _237
REMARK  101  A    between atoms: _237  and  _238
REMARK  102  A    between atoms: _237  and  _240
REMARK  103  A    between atoms: _240  and  _241
REMARK  104  A    between atoms: _241  and  _242
REMARK  105  A    between atoms: _247  and  _249
REMARK  106  A    between atoms: _249  and  _250
REMARK  107  A    between atoms: _249  and  _252
REMARK  108  A    between atoms: _252  and  _253
REMARK  109  A    between atoms: _253  and  _254
REMARK  110  A    between atoms: _254  and  _255
REMARK  111  A    between atoms: _255  and  _256
REMARK  112  A    between atoms: _261  and  _262
REMARK  113  A    between atoms: _267  and  _269
REMARK  114  A    between atoms: _269  and  _270
REMARK  115  A    between atoms: _272  and  _274
REMARK  116  A    between atoms: _274  and  _275
REMARK  117  A    between atoms: _274  and  _277
REMARK  118  A    between atoms: _280  and  _282
REMARK  119  A    between atoms: _282  and  _283
REMARK  120  A    between atoms: _282  and  _285
REMARK  121  A    between atoms: _285  and  _286
REMARK  122  A    between atoms: _291  and  _292
REMARK                            x       y       z     vdW  Elec       q    Type
REMARK                         _______ _______ _______ _____ _____    ______ ____
ROOT
ATOM      1  O   HOH     1      59.495  70.377 -23.879  0.00  0.00    +0.000 OA
ENDROOT
TORSDOF 0
REMARK  Name = ../refined-set-2016/1v2s/1v2s_pocket.pdb
REMARK  122 active torsions:
REMARK  status: ('A' for Active; 'I' for Inactive)
REMARK    1  A    between atoms: _1  and  _5
REMARK    2  A    between atoms: _5  and  _6
REMARK    3  A    between atoms: _5  and  _8
REMARK    4  A    between atoms: _8  and  _9
REMARK    5  A    between atoms: _12  and  _14
REMARK    6  A    between atoms: _14  and  _15
REMARK    7  A    between atoms: _14  and  _17
REMARK    8  A    between atoms: _20  and  _22
REMARK    9  A    between atoms: _22  and  _23
REMARK   10  A    between atoms: _22  and  _25
REMARK   11  A    between atoms: _25  and  _26
REMARK   12  A    between atoms: _31  and  _33
REMARK   13  A    between atoms: _33  and  _34
REMARK   14  A    between atoms: _33  and  _36
REMARK   15  A    between atoms: _36  and  _37
REMARK   16  A    between atoms: _40  and  _42
REMARK   17  A    between atoms: _42  and  _43
REMARK   18  A    between atoms: _42  and  _45
REMARK   19  A    between atoms: _45  and  _46
REMARK   20  A    between atoms: _49  and  _51
REMARK   21  A    between atoms: _51  and  _52
REMARK   22  A    between atoms: _51  and  _54
REMARK   23  A    between atoms: _54  and  _55
REMARK   24  A    between atoms: _60  and  _62
REMARK   25  A    between atoms: _62  and  _63
REMARK   26  A    between atoms: _62  and  _65
REMARK   27  A    between atoms: _65  and  _66
REMARK   28  A    between atoms: _71  and  _72
REMARK   29  A    between atoms: _74  and  _76
REMARK   30  A    between atoms: _76  and  _77
REMARK   31  A    between atoms: _80  and  _82
REMARK   32  A    between atoms: _82  and  _83
REMARK   33  A    between atoms: _82  and  _85
REMARK   34  A    between atoms: _85  and  _86
REMARK   35  A    between atoms: _86  and  _87
REMARK   36  A    between atoms: _87  and  _88
REMARK   37  A    between atoms: _88  and  _89
REMARK   38  A    between atoms: _93  and  _95
REMARK   39  A    between atoms: _95  and  _96
REMARK   40  A    between atoms: _95  and  _98
REMARK   41  A    between atoms: _98  and  _99
REMARK   42  A    between atoms: _102  and  _104
REMARK   43  A    between atoms: _104  and  _105
REMARK   44  A    between atoms: _104  and  _107
REMARK   45  A    between atoms: _107  and  _108
REMARK   46  A    between atoms: _110  and  _112
REMARK   47  A    between atoms: _112  and  _113
REMARK   48  A    between atoms: _112  and  _115
REMARK   49  A    between atoms: _115  and  _116
REMARK   50  A    between atoms: _116  and  _228
REMARK   51  A    between atoms: _117  and  _119
REMARK   52  A    between atoms: _119  and  _120
REMARK   53  A    between atoms: _119  and  _122
REMARK   54  A    between atoms: _122  and  _123
REMARK   55  A    between atoms: _123  and  _124
REMARK   56  A    between atoms: _129  and  _131
REMARK   57  A    between atoms: _131  and  _132
REMARK   58  A    between atoms: _134  and  _136
REMARK   59  A    between atoms: _136  and  _137
REMARK   60  A    between atoms: _136  and  _139
REMARK   61  A    between atoms: _139  and  _140
REMARK   62  A    between atoms: _143  and  _145
REMARK   63  A    between atoms: _145  and  _146
REMARK   64  A    between atoms: _145  and  _148
REMARK   65  A    between atoms: _148  and  _149
REMARK   66  A    between atoms: _151  and  _153
REMARK   67  A    between atoms: _153  and  _154
REMARK   68  A    between atoms: _156  and  _158
REMARK   69  A    between atoms: _158  and  _159
REMARK   70  A    between atoms: _161  and  _163
REMARK   71  A    between atoms: _163  and  _164
REMARK   72  A    between atoms: _163  and  _166
REMARK   73  A    between atoms: _166  and  _167
REMARK   74  A    between atoms: _170  and  _172
REMARK   75  A    between atoms: _172  and  _173
REMARK   76  A    between atoms: _172  and  _175
REMARK   77  A    between atoms: _178  and  _180
REMARK   78  A    between atoms: _180  and  _181
REMARK   79  A    between atoms: _180  and  _183
REMARK   80  A    between atoms: _183  and  _184
REMARK   81  A    between atoms: _186  and  _188
REMARK   82  A    between atoms: _188  and  _189
REMARK   83  A    between atoms: _188  and  _191
REMARK   84  A    between atoms: _191  and  _192
REMARK   85  A    between atoms: _202  and  _204
REMARK   86  A    between atoms: _204  and  _205
REMARK   87  A    between atoms: _207  and  _209
REMARK   88  A    between atoms: _209  and  _210
REMARK   89  A    between atoms: _209  and  _212
REMARK   90  A    between atoms: _212  and  _213
REMARK   91  A    between atoms: _213  and  _214
REMARK   92  A    between atoms: _217  and  _219
REMARK   93  A    between atoms: _219  and  _220
REMARK   94  A    between atoms: _222  and  _224
REMARK   95  A    between atoms: _224  and  _225
REMARK   96  A    between atoms: _224  and  _227
REMARK   97  A    between atoms: _227  and  _228
REMARK   98  A    between atoms: _229  and  _231
REMARK   99  A    between atoms: _231  and  _232
REMARK  100  A    between atoms: _235  and  _237
REMARK  101  A    between atoms: _237  and  _238
REMARK  102  A    between atoms: _237  and  _240
REMARK  103  A    between atoms: _240  and  _241
REMARK  104  A    between atoms: _241  and  _242
REMARK  105  A    between atoms: _247  and  _249
REMARK  106  A    between atoms: _249  and  _250
REMARK  107  A    between atoms: _249  and  _252
REMARK  108  A    between atoms: _252  and  _253
REMARK  109  A    between atoms: _253  and  _254
REMARK  110  A    between atoms: _254  and  _255
REMARK  111  A    between atoms: _255  and  _256
REMARK  112  A    between atoms: _261  and  _262
REMARK  113  A    between atoms: _267  and  _269
REMARK  114  A    between atoms: _269  and  _270
REMARK  115  A    between atoms: _272  and  _274
REMARK  116  A    between atoms: _274  and  _275
REMARK  117  A    between atoms: _274  and  _277
REMARK  118  A    between atoms: _280  and  _282
REMARK  119  A    between atoms: _282  and  _283
REMARK  120  A    between atoms: _282  and  _285
REMARK  121  A    between atoms: _285  and  _286
REMARK  122  A    between atoms: _291  and  _292
REMARK                            x       y       z     vdW  Elec       q    Type
REMARK                         _______ _______ _______ _____ _____    ______ ____
ROOT
ATOM      1  O   HOH     1      50.797  71.190 -28.319  0.00  0.00    +0.000 OA
ENDROOT
TORSDOF 0
REMARK  Name = ../refined-set-2016/1v2s/1v2s_pocket.pdb
REMARK  122 active torsions:
REMARK  status: ('A' for Active; 'I' for Inactive)
REMARK    1  A    between atoms: _1  and  _5
REMARK    2  A    between atoms: _5  and  _6
REMARK    3  A    between atoms: _5  and  _8
REMARK    4  A    between atoms: _8  and  _9
REMARK    5  A    between atoms: _12  and  _14
REMARK    6  A    between atoms: _14  and  _15
REMARK    7  A    between atoms: _14  and  _17
REMARK    8  A    between atoms: _20  and  _22
REMARK    9  A    between atoms: _22  and  _23
REMARK   10  A    between atoms: _22  and  _25
REMARK   11  A    between atoms: _25  and  _26
REMARK   12  A    between atoms: _31  and  _33
REMARK   13  A    between atoms: _33  and  _34
REMARK   14  A    between atoms: _33  and  _36
REMARK   15  A    between atoms: _36  and  _37
REMARK   16  A    between atoms: _40  and  _42
REMARK   17  A    between atoms: _42  and  _43
REMARK   18  A    between atoms: _42  and  _45
REMARK   19  A    between atoms: _45  and  _46
REMARK   20  A    between atoms: _49  and  _51
REMARK   21  A    between atoms: _51  and  _52
REMARK   22  A    between atoms: _51  and  _54
REMARK   23  A    between atoms: _54  and  _55
REMARK   24  A    between atoms: _60  and  _62
REMARK   25  A    between atoms: _62  and  _63
REMARK   26  A    between atoms: _62  and  _65
REMARK   27  A    between atoms: _65  and  _66
REMARK   28  A    between atoms: _71  and  _72
REMARK   29  A    between atoms: _74  and  _76
REMARK   30  A    between atoms: _76  and  _77
REMARK   31  A    between atoms: _80  and  _82
REMARK   32  A    between atoms: _82  and  _83
REMARK   33  A    between atoms: _82  and  _85
REMARK   34  A    between atoms: _85  and  _86
REMARK   35  A    between atoms: _86  and  _87
REMARK   36  A    between atoms: _87  and  _88
REMARK   37  A    between atoms: _88  and  _89
REMARK   38  A    between atoms: _93  and  _95
REMARK   39  A    between atoms: _95  and  _96
REMARK   40  A    between atoms: _95  and  _98
REMARK   41  A    between atoms: _98  and  _99
REMARK   42  A    between atoms: _102  and  _104
REMARK   43  A    between atoms: _104  and  _105
REMARK   44  A    between atoms: _104  and  _107
REMARK   45  A    between atoms: _107  and  _108
REMARK   46  A    between atoms: _110  and  _112
REMARK   47  A    between atoms: _112  and  _113
REMARK   48  A    between atoms: _112  and  _115
REMARK   49  A    between atoms: _115  and  _116
REMARK   50  A    between atoms: _116  and  _228
REMARK   51  A    between atoms: _117  and  _119
REMARK   52  A    between atoms: _119  and  _120
REMARK   53  A    between atoms: _119  and  _122
REMARK   54  A    between atoms: _122  and  _123
REMARK   55  A    between atoms: _123  and  _124
REMARK   56  A    between atoms: _129  and  _131
REMARK   57  A    between atoms: _131  and  _132
REMARK   58  A    between atoms: _134  and  _136
REMARK   59  A    between atoms: _136  and  _137
REMARK   60  A    between atoms: _136  and  _139
REMARK   61  A    between atoms: _139  and  _140
REMARK   62  A    between atoms: _143  and  _145
REMARK   63  A    between atoms: _145  and  _146
REMARK   64  A    between atoms: _145  and  _148
REMARK   65  A    between atoms: _148  and  _149
REMARK   66  A    between atoms: _151  and  _153
REMARK   67  A    between atoms: _153  and  _154
REMARK   68  A    between atoms: _156  and  _158
REMARK   69  A    between atoms: _158  and  _159
REMARK   70  A    between atoms: _161  and  _163
REMARK   71  A    between atoms: _163  and  _164
REMARK   72  A    between atoms: _163  and  _166
REMARK   73  A    between atoms: _166  and  _167
REMARK   74  A    between atoms: _170  and  _172
REMARK   75  A    between atoms: _172  and  _173
REMARK   76  A    between atoms: _172  and  _175
REMARK   77  A    between atoms: _178  and  _180
REMARK   78  A    between atoms: _180  and  _181
REMARK   79  A    between atoms: _180  and  _183
REMARK   80  A    between atoms: _183  and  _184
REMARK   81  A    between atoms: _186  and  _188
REMARK   82  A    between atoms: _188  and  _189
REMARK   83  A    between atoms: _188  and  _191
REMARK   84  A    between atoms: _191  and  _192
REMARK   85  A    between atoms: _202  and  _204
REMARK   86  A    between atoms: _204  and  _205
REMARK   87  A    between atoms: _207  and  _209
REMARK   88  A    between atoms: _209  and  _210
REMARK   89  A    between atoms: _209  and  _212
REMARK   90  A    between atoms: _212  and  _213
REMARK   91  A    between atoms: _213  and  _214
REMARK   92  A    between atoms: _217  and  _219
REMARK   93  A    between atoms: _219  and  _220
REMARK   94  A    between atoms: _222  and  _224
REMARK   95  A    between atoms: _224  and  _225
REMARK   96  A    between atoms: _224  and  _227
REMARK   97  A    between atoms: _227  and  _228
REMARK   98  A    between atoms: _229  and  _231
REMARK   99  A    between atoms: _231  and  _232
REMARK  100  A    between atoms: _235  and  _237
REMARK  101  A    between atoms: _237  and  _238
REMARK  102  A    between atoms: _237  and  _240
REMARK  103  A    between atoms: _240  and  _241
REMARK  104  A    between atoms: _241  and  _242
REMARK  105  A    between atoms: _247  and  _249
REMARK  106  A    between atoms: _249  and  _250
REMARK  107  A    between atoms: _249  and  _252
REMARK  108  A    between atoms: _252  and  _253
REMARK  109  A    between atoms: _253  and  _254
REMARK  110  A    between atoms: _254  and  _255
REMARK  111  A    between atoms: _255  and  _256
REMARK  112  A    between atoms: _261  and  _262
REMARK  113  A    between atoms: _267  and  _269
REMARK  114  A    between atoms: _269  and  _270
REMARK  115  A    between atoms: _272  and  _274
REMARK  116  A    between atoms: _274  and  _275
REMARK  117  A    between atoms: _274  and  _277
REMARK  118  A    between atoms: _280  and  _282
REMARK  119  A    between atoms: _282  and  _283
REMARK  120  A    between atoms: _282  and  _285
REMARK  121  A    between atoms: _285  and  _286
REMARK  122  A    between atoms: _291  and  _292
REMARK                            x       y       z     vdW  Elec       q    Type
REMARK                         _______ _______ _______ _____ _____    ______ ____
ROOT
ATOM      1  O   HOH     1      49.629  70.938 -31.085  0.00  0.00    +0.000 OA
ENDROOT
TORSDOF 0
REMARK  Name = ../refined-set-2016/1v2s/1v2s_pocket.pdb
REMARK  122 active torsions:
REMARK  status: ('A' for Active; 'I' for Inactive)
REMARK    1  A    between atoms: _1  and  _5
REMARK    2  A    between atoms: _5  and  _6
REMARK    3  A    between atoms: _5  and  _8
REMARK    4  A    between atoms: _8  and  _9
REMARK    5  A    between atoms: _12  and  _14
REMARK    6  A    between atoms: _14  and  _15
REMARK    7  A    between atoms: _14  and  _17
REMARK    8  A    between atoms: _20  and  _22
REMARK    9  A    between atoms: _22  and  _23
REMARK   10  A    between atoms: _22  and  _25
REMARK   11  A    between atoms: _25  and  _26
REMARK   12  A    between atoms: _31  and  _33
REMARK   13  A    between atoms: _33  and  _34
REMARK   14  A    between atoms: _33  and  _36
REMARK   15  A    between atoms: _36  and  _37
REMARK   16  A    between atoms: _40  and  _42
REMARK   17  A    between atoms: _42  and  _43
REMARK   18  A    between atoms: _42  and  _45
REMARK   19  A    between atoms: _45  and  _46
REMARK   20  A    between atoms: _49  and  _51
REMARK   21  A    between atoms: _51  and  _52
REMARK   22  A    between atoms: _51  and  _54
REMARK   23  A    between atoms: _54  and  _55
REMARK   24  A    between atoms: _60  and  _62
REMARK   25  A    between atoms: _62  and  _63
REMARK   26  A    between atoms: _62  and  _65
REMARK   27  A    between atoms: _65  and  _66
REMARK   28  A    between atoms: _71  and  _72
REMARK   29  A    between atoms: _74  and  _76
REMARK   30  A    between atoms: _76  and  _77
REMARK   31  A    between atoms: _80  and  _82
REMARK   32  A    between atoms: _82  and  _83
REMARK   33  A    between atoms: _82  and  _85
REMARK   34  A    between atoms: _85  and  _86
REMARK   35  A    between atoms: _86  and  _87
REMARK   36  A    between atoms: _87  and  _88
REMARK   37  A    between atoms: _88  and  _89
REMARK   38  A    between atoms: _93  and  _95
REMARK   39  A    between atoms: _95  and  _96
REMARK   40  A    between atoms: _95  and  _98
REMARK   41  A    between atoms: _98  and  _99
REMARK   42  A    between atoms: _102  and  _104
REMARK   43  A    between atoms: _104  and  _105
REMARK   44  A    between atoms: _104  and  _107
REMARK   45  A    between atoms: _107  and  _108
REMARK   46  A    between atoms: _110  and  _112
REMARK   47  A    between atoms: _112  and  _113
REMARK   48  A    between atoms: _112  and  _115
REMARK   49  A    between atoms: _115  and  _116
REMARK   50  A    between atoms: _116  and  _228
REMARK   51  A    between atoms: _117  and  _119
REMARK   52  A    between atoms: _119  and  _120
REMARK   53  A    between atoms: _119  and  _122
REMARK   54  A    between atoms: _122  and  _123
REMARK   55  A    between atoms: _123  and  _124
REMARK   56  A    between atoms: _129  and  _131
REMARK   57  A    between atoms: _131  and  _132
REMARK   58  A    between atoms: _134  and  _136
REMARK   59  A    between atoms: _136  and  _137
REMARK   60  A    between atoms: _136  and  _139
REMARK   61  A    between atoms: _139  and  _140
REMARK   62  A    between atoms: _143  and  _145
REMARK   63  A    between atoms: _145  and  _146
REMARK   64  A    between atoms: _145  and  _148
REMARK   65  A    between atoms: _148  and  _149
REMARK   66  A    between atoms: _151  and  _153
REMARK   67  A    between atoms: _153  and  _154
REMARK   68  A    between atoms: _156  and  _158
REMARK   69  A    between atoms: _158  and  _159
REMARK   70  A    between atoms: _161  and  _163
REMARK   71  A    between atoms: _163  and  _164
REMARK   72  A    between atoms: _163  and  _166
REMARK   73  A    between atoms: _166  and  _167
REMARK   74  A    between atoms: _170  and  _172
REMARK   75  A    between atoms: _172  and  _173
REMARK   76  A    between atoms: _172  and  _175
REMARK   77  A    between atoms: _178  and  _180
REMARK   78  A    between atoms: _180  and  _181
REMARK   79  A    between atoms: _180  and  _183
REMARK   80  A    between atoms: _183  and  _184
REMARK   81  A    between atoms: _186  and  _188
REMARK   82  A    between atoms: _188  and  _189
REMARK   83  A    between atoms: _188  and  _191
REMARK   84  A    between atoms: _191  and  _192
REMARK   85  A    between atoms: _202  and  _204
REMARK   86  A    between atoms: _204  and  _205
REMARK   87  A    between atoms: _207  and  _209
REMARK   88  A    between atoms: _209  and  _210
REMARK   89  A    between atoms: _209  and  _212
REMARK   90  A    between atoms: _212  and  _213
REMARK   91  A    between atoms: _213  and  _214
REMARK   92  A    between atoms: _217  and  _219
REMARK   93  A    between atoms: _219  and  _220
REMARK   94  A    between atoms: _222  and  _224
REMARK   95  A    between atoms: _224  and  _225
REMARK   96  A    between atoms: _224  and  _227
REMARK   97  A    between atoms: _227  and  _228
REMARK   98  A    between atoms: _229  and  _231
REMARK   99  A    between atoms: _231  and  _232
REMARK  100  A    between atoms: _235  and  _237
REMARK  101  A    between atoms: _237  and  _238
REMARK  102  A    between atoms: _237  and  _240
REMARK  103  A    between atoms: _240  and  _241
REMARK  104  A    between atoms: _241  and  _242
REMARK  105  A    between atoms: _247  and  _249
REMARK  106  A    between atoms: _249  and  _250
REMARK  107  A    between atoms: _249  and  _252
REMARK  108  A    between atoms: _252  and  _253
REMARK  109  A    between atoms: _253  and  _254
REMARK  110  A    between atoms: _254  and  _255
REMARK  111  A    between atoms: _255  and  _256
REMARK  112  A    between atoms: _261  and  _262
REMARK  113  A    between atoms: _267  and  _269
REMARK  114  A    between atoms: _269  and  _270
REMARK  115  A    between atoms: _272  and  _274
REMARK  116  A    between atoms: _274  and  _275
REMARK  117  A    between atoms: _274  and  _277
REMARK  118  A    between atoms: _280  and  _282
REMARK  119  A    between atoms: _282  and  _283
REMARK  120  A    between atoms: _282  and  _285
REMARK  121  A    between atoms: _285  and  _286
REMARK  122  A    between atoms: _291  and  _292
REMARK                            x       y       z     vdW  Elec       q    Type
REMARK                         _______ _______ _______ _____ _____    ______ ____
ROOT
ATOM      1  O   HOH     1      56.146  62.752 -22.392  0.00  0.00    +0.000 OA
ENDROOT
TORSDOF 0
REMARK  Name = ../refined-set-2016/1v2s/1v2s_pocket.pdb
REMARK  122 active torsions:
REMARK  status: ('A' for Active; 'I' for Inactive)
REMARK    1  A    between atoms: _1  and  _5
REMARK    2  A    between atoms: _5  and  _6
REMARK    3  A    between atoms: _5  and  _8
REMARK    4  A    between atoms: _8  and  _9
REMARK    5  A    between atoms: _12  and  _14
REMARK    6  A    between atoms: _14  and  _15
REMARK    7  A    between atoms: _14  and  _17
REMARK    8  A    between atoms: _20  and  _22
REMARK    9  A    between atoms: _22  and  _23
REMARK   10  A    between atoms: _22  and  _25
REMARK   11  A    between atoms: _25  and  _26
REMARK   12  A    between atoms: _31  and  _33
REMARK   13  A    between atoms: _33  and  _34
REMARK   14  A    between atoms: _33  and  _36
REMARK   15  A    between atoms: _36  and  _37
REMARK   16  A    between atoms: _40  and  _42
REMARK   17  A    between atoms: _42  and  _43
REMARK   18  A    between atoms: _42  and  _45
REMARK   19  A    between atoms: _45  and  _46
REMARK   20  A    between atoms: _49  and  _51
REMARK   21  A    between atoms: _51  and  _52
REMARK   22  A    between atoms: _51  and  _54
REMARK   23  A    between atoms: _54  and  _55
REMARK   24  A    between atoms: _60  and  _62
REMARK   25  A    between atoms: _62  and  _63
REMARK   26  A    between atoms: _62  and  _65
REMARK   27  A    between atoms: _65  and  _66
REMARK   28  A    between atoms: _71  and  _72
REMARK   29  A    between atoms: _74  and  _76
REMARK   30  A    between atoms: _76  and  _77
REMARK   31  A    between atoms: _80  and  _82
REMARK   32  A    between atoms: _82  and  _83
REMARK   33  A    between atoms: _82  and  _85
REMARK   34  A    between atoms: _85  and  _86
REMARK   35  A    between atoms: _86  and  _87
REMARK   36  A    between atoms: _87  and  _88
REMARK   37  A    between atoms: _88  and  _89
REMARK   38  A    between atoms: _93  and  _95
REMARK   39  A    between atoms: _95  and  _96
REMARK   40  A    between atoms: _95  and  _98
REMARK   41  A    between atoms: _98  and  _99
REMARK   42  A    between atoms: _102  and  _104
REMARK   43  A    between atoms: _104  and  _105
REMARK   44  A    between atoms: _104  and  _107
REMARK   45  A    between atoms: _107  and  _108
REMARK   46  A    between atoms: _110  and  _112
REMARK   47  A    between atoms: _112  and  _113
REMARK   48  A    between atoms: _112  and  _115
REMARK   49  A    between atoms: _115  and  _116
REMARK   50  A    between atoms: _116  and  _228
REMARK   51  A    between atoms: _117  and  _119
REMARK   52  A    between atoms: _119  and  _120
REMARK   53  A    between atoms: _119  and  _122
REMARK   54  A    between atoms: _122  and  _123
REMARK   55  A    between atoms: _123  and  _124
REMARK   56  A    between atoms: _129  and  _131
REMARK   57  A    between atoms: _131  and  _132
REMARK   58  A    between atoms: _134  and  _136
REMARK   59  A    between atoms: _136  and  _137
REMARK   60  A    between atoms: _136  and  _139
REMARK   61  A    between atoms: _139  and  _140
REMARK   62  A    between atoms: _143  and  _145
REMARK   63  A    between atoms: _145  and  _146
REMARK   64  A    between atoms: _145  and  _148
REMARK   65  A    between atoms: _148  and  _149
REMARK   66  A    between atoms: _151  and  _153
REMARK   67  A    between atoms: _153  and  _154
REMARK   68  A    between atoms: _156  and  _158
REMARK   69  A    between atoms: _158  and  _159
REMARK   70  A    between atoms: _161  and  _163
REMARK   71  A    between atoms: _163  and  _164
REMARK   72  A    between atoms: _163  and  _166
REMARK   73  A    between atoms: _166  and  _167
REMARK   74  A    between atoms: _170  and  _172
REMARK   75  A    between atoms: _172  and  _173
REMARK   76  A    between atoms: _172  and  _175
REMARK   77  A    between atoms: _178  and  _180
REMARK   78  A    between atoms: _180  and  _181
REMARK   79  A    between atoms: _180  and  _183
REMARK   80  A    between atoms: _183  and  _184
REMARK   81  A    between atoms: _186  and  _188
REMARK   82  A    between atoms: _188  and  _189
REMARK   83  A    between atoms: _188  and  _191
REMARK   84  A    between atoms: _191  and  _192
REMARK   85  A    between atoms: _202  and  _204
REMARK   86  A    between atoms: _204  and  _205
REMARK   87  A    between atoms: _207  and  _209
REMARK   88  A    between atoms: _209  and  _210
REMARK   89  A    between atoms: _209  and  _212
REMARK   90  A    between atoms: _212  and  _213
REMARK   91  A    between atoms: _213  and  _214
REMARK   92  A    between atoms: _217  and  _219
REMARK   93  A    between atoms: _219  and  _220
REMARK   94  A    between atoms: _222  and  _224
REMARK   95  A    between atoms: _224  and  _225
REMARK   96  A    between atoms: _224  and  _227
REMARK   97  A    between atoms: _227  and  _228
REMARK   98  A    between atoms: _229  and  _231
REMARK   99  A    between atoms: _231  and  _232
REMARK  100  A    between atoms: _235  and  _237
REMARK  101  A    between atoms: _237  and  _238
REMARK  102  A    between atoms: _237  and  _240
REMARK  103  A    between atoms: _240  and  _241
REMARK  104  A    between atoms: _241  and  _242
REMARK  105  A    between atoms: _247  and  _249
REMARK  106  A    between atoms: _249  and  _250
REMARK  107  A    between atoms: _249  and  _252
REMARK  108  A    between atoms: _252  and  _253
REMARK  109  A    between atoms: _253  and  _254
REMARK  110  A    between atoms: _254  and  _255
REMARK  111  A    between atoms: _255  and  _256
REMARK  112  A    between atoms: _261  and  _262
REMARK  113  A    between atoms: _267  and  _269
REMARK  114  A    between atoms: _269  and  _270
REMARK  115  A    between atoms: _272  and  _274
REMARK  116  A    between atoms: _274  and  _275
REMARK  117  A    between atoms: _274  and  _277
REMARK  118  A    between atoms: _280  and  _282
REMARK  119  A    between atoms: _282  and  _283
REMARK  120  A    between atoms: _282  and  _285
REMARK  121  A    between atoms: _285  and  _286
REMARK  122  A    between atoms: _291  and  _292
REMARK                            x       y       z     vdW  Elec       q    Type
REMARK                         _______ _______ _______ _____ _____    ______ ____
ROOT
ATOM      1  O   HOH     1      51.180  66.866 -22.382  0.00  0.00    +0.000 OA
ENDROOT
TORSDOF 0
