REMARK  Name = ../refined-set-2016/1bxq/1bxq_pocket.pdb
REMARK  251 active torsions:
REMARK  status: ('A' for Active; 'I' for Inactive)
REMARK    1  A    between atoms: _1  and  _3
REMARK    2  A    between atoms: _3  and  _4
REMARK    3  A    between atoms: _3  and  _6
REMARK    4  A    between atoms: _6  and  _7
REMARK    5  A    between atoms: _10  and  _12
REMARK    6  A    between atoms: _12  and  _13
REMARK    7  A    between atoms: _16  and  _18
REMARK    8  A    between atoms: _18  and  _19
REMARK    9  A    between atoms: _18  and  _21
REMARK   10  A    between atoms: _21  and  _22
REMARK   11  A    between atoms: _27  and  _29
REMARK   12  A    between atoms: _29  and  _30
REMARK   13  A    between atoms: _29  and  _32
REMARK   14  A    between atoms: _32  and  _33
REMARK   15  A    between atoms: _36  and  _38
REMARK   16  A    between atoms: _38  and  _39
REMARK   17  A    between atoms: _38  and  _41
REMARK   18  A    between atoms: _41  and  _42
REMARK   19  A    between atoms: _42  and  _43
REMARK   20  A    between atoms: _46  and  _48
REMARK   21  A    between atoms: _48  and  _49
REMARK   22  A    between atoms: _48  and  _51
REMARK   23  A    between atoms: _51  and  _52
REMARK   24  A    between atoms: _52  and  _53
REMARK   25  A    between atoms: _56  and  _58
REMARK   26  A    between atoms: _58  and  _59
REMARK   27  A    between atoms: _58  and  _61
REMARK   28  A    between atoms: _61  and  _62
REMARK   29  A    between atoms: _67  and  _68
REMARK   30  A    between atoms: _70  and  _72
REMARK   31  A    between atoms: _72  and  _73
REMARK   32  A    between atoms: _72  and  _75
REMARK   33  A    between atoms: _75  and  _76
REMARK   34  A    between atoms: _81  and  _83
REMARK   35  A    between atoms: _83  and  _84
REMARK   36  A    between atoms: _83  and  _86
REMARK   37  A    between atoms: _86  and  _87
REMARK   38  A    between atoms: _93  and  _95
REMARK   39  A    between atoms: _95  and  _96
REMARK   40  A    between atoms: _95  and  _98
REMARK   41  A    between atoms: _98  and  _99
REMARK   42  A    between atoms: _102  and  _104
REMARK   43  A    between atoms: _104  and  _105
REMARK   44  A    between atoms: _104  and  _107
REMARK   45  A    between atoms: _107  and  _108
REMARK   46  A    between atoms: _111  and  _113
REMARK   47  A    between atoms: _113  and  _114
REMARK   48  A    between atoms: _116  and  _118
REMARK   49  A    between atoms: _118  and  _119
REMARK   50  A    between atoms: _118  and  _121
REMARK   51  A    between atoms: _121  and  _122
REMARK   52  A    between atoms: _124  and  _126
REMARK   53  A    between atoms: _126  and  _127
REMARK   54  A    between atoms: _130  and  _132
REMARK   55  A    between atoms: _132  and  _133
REMARK   56  A    between atoms: _132  and  _135
REMARK   57  A    between atoms: _135  and  _136
REMARK   58  A    between atoms: _139  and  _141
REMARK   59  A    between atoms: _141  and  _142
REMARK   60  A    between atoms: _141  and  _144
REMARK   61  A    between atoms: _144  and  _145
REMARK   62  A    between atoms: _155  and  _157
REMARK   63  A    between atoms: _157  and  _158
REMARK   64  A    between atoms: _157  and  _160
REMARK   65  A    between atoms: _160  and  _161
REMARK   66  A    between atoms: _164  and  _166
REMARK   67  A    between atoms: _166  and  _167
REMARK   68  A    between atoms: _166  and  _169
REMARK   69  A    between atoms: _169  and  _170
REMARK   70  A    between atoms: _172  and  _174
REMARK   71  A    between atoms: _174  and  _175
REMARK   72  A    between atoms: _174  and  _177
REMARK   73  A    between atoms: _177  and  _178
REMARK   74  A    between atoms: _183  and  _184
REMARK   75  A    between atoms: _186  and  _188
REMARK   76  A    between atoms: _188  and  _189
REMARK   77  A    between atoms: _191  and  _193
REMARK   78  A    between atoms: _193  and  _194
REMARK   79  A    between atoms: _193  and  _196
REMARK   80  A    between atoms: _196  and  _197
REMARK   81  A    between atoms: _200  and  _202
REMARK   82  A    between atoms: _202  and  _203
REMARK   83  A    between atoms: _205  and  _207
REMARK   84  A    between atoms: _207  and  _208
REMARK   85  A    between atoms: _207  and  _210
REMARK   86  A    between atoms: _210  and  _211
REMARK   87  A    between atoms: _213  and  _215
REMARK   88  A    between atoms: _215  and  _216
REMARK   89  A    between atoms: _215  and  _218
REMARK   90  A    between atoms: _218  and  _219
REMARK   91  A    between atoms: _221  and  _223
REMARK   92  A    between atoms: _223  and  _224
REMARK   93  A    between atoms: _223  and  _226
REMARK   94  A    between atoms: _226  and  _227
REMARK   95  A    between atoms: _229  and  _231
REMARK   96  A    between atoms: _231  and  _232
REMARK   97  A    between atoms: _231  and  _234
REMARK   98  A    between atoms: _234  and  _235
REMARK   99  A    between atoms: _235  and  _236
REMARK  100  A    between atoms: _241  and  _243
REMARK  101  A    between atoms: _243  and  _244
REMARK  102  A    between atoms: _243  and  _246
REMARK  103  A    between atoms: _246  and  _247
REMARK  104  A    between atoms: _253  and  _255
REMARK  105  A    between atoms: _255  and  _256
REMARK  106  A    between atoms: _255  and  _258
REMARK  107  A    between atoms: _258  and  _259
REMARK  108  A    between atoms: _262  and  _264
REMARK  109  A    between atoms: _264  and  _265
REMARK  110  A    between atoms: _264  and  _267
REMARK  111  A    between atoms: _267  and  _268
REMARK  112  A    between atoms: _273  and  _275
REMARK  113  A    between atoms: _275  and  _276
REMARK  114  A    between atoms: _275  and  _278
REMARK  115  A    between atoms: _278  and  _279
REMARK  116  A    between atoms: _284  and  _286
REMARK  117  A    between atoms: _286  and  _287
REMARK  118  A    between atoms: _289  and  _291
REMARK  119  A    between atoms: _291  and  _292
REMARK  120  A    between atoms: _291  and  _294
REMARK  121  A    between atoms: _294  and  _295
REMARK  122  A    between atoms: _298  and  _300
REMARK  123  A    between atoms: _300  and  _301
REMARK  124  A    between atoms: _300  and  _303
REMARK  125  A    between atoms: _303  and  _304
REMARK  126  A    between atoms: _307  and  _309
REMARK  127  A    between atoms: _309  and  _310
REMARK  128  A    between atoms: _312  and  _314
REMARK  129  A    between atoms: _314  and  _315
REMARK  130  A    between atoms: _314  and  _317
REMARK  131  A    between atoms: _317  and  _318
REMARK  132  A    between atoms: _321  and  _323
REMARK  133  A    between atoms: _323  and  _324
REMARK  134  A    between atoms: _327  and  _329
REMARK  135  A    between atoms: _329  and  _330
REMARK  136  A    between atoms: _329  and  _332
REMARK  137  A    between atoms: _332  and  _333
REMARK  138  A    between atoms: _336  and  _338
REMARK  139  A    between atoms: _338  and  _339
REMARK  140  A    between atoms: _338  and  _341
REMARK  141  A    between atoms: _341  and  _342
REMARK  142  A    between atoms: _342  and  _343
REMARK  143  A    between atoms: _348  and  _350
REMARK  144  A    between atoms: _350  and  _351
REMARK  145  A    between atoms: _350  and  _353
REMARK  146  A    between atoms: _353  and  _354
REMARK  147  A    between atoms: _360  and  _362
REMARK  148  A    between atoms: _362  and  _363
REMARK  149  A    between atoms: _362  and  _365
REMARK  150  A    between atoms: _365  and  _366
REMARK  151  A    between atoms: _376  and  _378
REMARK  152  A    between atoms: _378  and  _379
REMARK  153  A    between atoms: _378  and  _381
REMARK  154  A    between atoms: _381  and  _382
REMARK  155  A    between atoms: _385  and  _387
REMARK  156  A    between atoms: _387  and  _388
REMARK  157  A    between atoms: _391  and  _393
REMARK  158  A    between atoms: _393  and  _394
REMARK  159  A    between atoms: _393  and  _396
REMARK  160  A    between atoms: _396  and  _397
REMARK  161  A    between atoms: _400  and  _402
REMARK  162  A    between atoms: _402  and  _403
REMARK  163  A    between atoms: _402  and  _405
REMARK  164  A    between atoms: _405  and  _406
REMARK  165  A    between atoms: _409  and  _411
REMARK  166  A    between atoms: _411  and  _412
REMARK  167  A    between atoms: _414  and  _416
REMARK  168  A    between atoms: _416  and  _417
REMARK  169  A    between atoms: _416  and  _419
REMARK  170  A    between atoms: _419  and  _420
REMARK  171  A    between atoms: _423  and  _425
REMARK  172  A    between atoms: _425  and  _426
REMARK  173  A    between atoms: _425  and  _428
REMARK  174  A    between atoms: _428  and  _429
REMARK  175  A    between atoms: _432  and  _434
REMARK  176  A    between atoms: _434  and  _435
REMARK  177  A    between atoms: _434  and  _437
REMARK  178  A    between atoms: _437  and  _438
REMARK  179  A    between atoms: _441  and  _443
REMARK  180  A    between atoms: _443  and  _444
REMARK  181  A    between atoms: _443  and  _446
REMARK  182  A    between atoms: _446  and  _447
REMARK  183  A    between atoms: _450  and  _452
REMARK  184  A    between atoms: _452  and  _453
REMARK  185  A    between atoms: _452  and  _455
REMARK  186  A    between atoms: _455  and  _456
REMARK  187  A    between atoms: _459  and  _461
REMARK  188  A    between atoms: _461  and  _462
REMARK  189  A    between atoms: _465  and  _467
REMARK  190  A    between atoms: _467  and  _468
REMARK  191  A    between atoms: _470  and  _472
REMARK  192  A    between atoms: _472  and  _473
REMARK  193  A    between atoms: _475  and  _477
REMARK  194  A    between atoms: _477  and  _478
REMARK  195  A    between atoms: _477  and  _480
REMARK  196  A    between atoms: _480  and  _481
REMARK  197  A    between atoms: _486  and  _487
REMARK  198  A    between atoms: _490  and  _491
REMARK  199  A    between atoms: _496  and  _498
REMARK  200  A    between atoms: _498  and  _499
REMARK  201  A    between atoms: _498  and  _501
REMARK  202  A    between atoms: _501  and  _502
REMARK  203  A    between atoms: _504  and  _506
REMARK  204  A    between atoms: _506  and  _507
REMARK  205  A    between atoms: _506  and  _509
REMARK  206  A    between atoms: _509  and  _510
REMARK  207  A    between atoms: _513  and  _515
REMARK  208  A    between atoms: _515  and  _516
REMARK  209  A    between atoms: _518  and  _520
REMARK  210  A    between atoms: _520  and  _521
REMARK  211  A    between atoms: _520  and  _523
REMARK  212  A    between atoms: _523  and  _524
REMARK  213  A    between atoms: _524  and  _525
REMARK  214  A    between atoms: _530  and  _532
REMARK  215  A    between atoms: _532  and  _533
REMARK  216  A    between atoms: _532  and  _535
REMARK  217  A    between atoms: _535  and  _536
REMARK  218  A    between atoms: _538  and  _540
REMARK  219  A    between atoms: _540  and  _541
REMARK  220  A    between atoms: _540  and  _543
REMARK  221  A    between atoms: _543  and  _544
REMARK  222  A    between atoms: _549  and  _551
REMARK  223  A    between atoms: _551  and  _552
REMARK  224  A    between atoms: _551  and  _554
REMARK  225  A    between atoms: _554  and  _555
REMARK  226  A    between atoms: _557  and  _559
REMARK  227  A    between atoms: _559  and  _560
REMARK  228  A    between atoms: _559  and  _562
REMARK  229  A    between atoms: _562  and  _563
REMARK  230  A    between atoms: _566  and  _568
REMARK  231  A    between atoms: _568  and  _569
REMARK  232  A    between atoms: _568  and  _571
REMARK  233  A    between atoms: _571  and  _572
REMARK  234  A    between atoms: _578  and  _580
REMARK  235  A    between atoms: _580  and  _581
REMARK  236  A    between atoms: _580  and  _583
REMARK  237  A    between atoms: _583  and  _584
REMARK  238  A    between atoms: _586  and  _588
REMARK  239  A    between atoms: _588  and  _589
REMARK  240  A    between atoms: _588  and  _591
REMARK  241  A    between atoms: _591  and  _592
REMARK  242  A    between atoms: _595  and  _597
REMARK  243  A    between atoms: _597  and  _598
REMARK  244  A    between atoms: _597  and  _600
REMARK  245  A    between atoms: _600  and  _601
REMARK  246  A    between atoms: _607  and  _609
REMARK  247  A    between atoms: _609  and  _610
REMARK  248  A    between atoms: _612  and  _614
REMARK  249  A    between atoms: _614  and  _615
REMARK  250  A    between atoms: _614  and  _617
REMARK  251  A    between atoms: _617  and  _618
REMARK                            x       y       z     vdW  Elec       q    Type
REMARK                         _______ _______ _______ _____ _____    ______ ____
ROOT
ATOM      1  C   ASP A   4      15.539   7.146  10.855  0.00  0.00    +0.241 C 
ATOM      2  O   ASP A   4      15.543   8.065  11.674  0.00  0.00    -0.273 OA
ATOM      3  N   GLU A   5      16.066   5.976  11.169  0.00  0.00    -0.297 N 
ATOM      4  H   GLU A   5      16.101   5.221  10.454  0.00  0.00    +0.150 HD
ENDROOT
BRANCH   3   5
ATOM      5  CA  GLU A   5      16.599   5.727  12.501  0.00  0.00    +0.149 C 
BRANCH   5   6
ATOM      6  C   GLU A   5      17.833   6.588  12.788  0.00  0.00    +0.241 C 
ATOM      7  O   GLU A   5      18.058   7.107  13.865  0.00  0.00    -0.273 OA
ATOM      8  N   GLU A   6      18.654   6.733  11.752  0.00  0.00    -0.297 N 
ATOM      9  H   GLU A   6      18.454   6.217  10.872  0.00  0.00    +0.150 HD
BRANCH   8  10
ATOM     10  CA  GLU A   6      19.834   7.601  11.817  0.00  0.00    +0.149 C 
BRANCH  10  11
ATOM     11  C   GLU A   6      20.081   8.109  10.405  0.00  0.00    +0.241 C 
ATOM     12  N   TYR A   7      20.901   9.135  10.320  0.00  0.00    -0.298 N 
ATOM     13  H   TYR A   7      21.302   9.543  11.188  0.00  0.00    +0.150 HD
ATOM     14  O   GLU A   6      19.491   7.621   9.451  0.00  0.00    -0.273 OA
BRANCH  12  15
ATOM     15  CA  TYR A   7      21.257   9.710   9.022  0.00  0.00    +0.141 C 
BRANCH  15  16
ATOM     16  C   TYR A   7      22.747   9.556   8.794  0.00  0.00    +0.227 C 
ATOM     17  O   TYR A   7      23.489   9.857   9.734  0.00  0.00    -0.286 OA
ENDBRANCH  15  16
BRANCH  15  18
ATOM     18  CB  TYR A   7      20.882  11.188   9.009  0.00  0.00    +0.054 C 
BRANCH  18  19
ATOM     19  CG  TYR A   7      19.369  11.322   8.955  0.00  0.00    -0.020 A 
ATOM     20  CD2 TYR A   7      18.573  11.157  10.077  0.00  0.00    -0.001 A 
ATOM     21  CE2 TYR A   7      17.217  11.288  10.018  0.00  0.00    +0.036 A 
ATOM     22  CZ  TYR A   7      16.616  11.598   8.816  0.00  0.00    +0.134 A 
ATOM     23  CE1 TYR A   7      17.363  11.765   7.678  0.00  0.00    +0.036 A 
ATOM     24  CD1 TYR A   7      18.735  11.637   7.752  0.00  0.00    -0.001 A 
BRANCH  22  25
ATOM     25  OH  TYR A   7      15.232  11.702   8.794  0.00  0.00    -0.506 OA
ATOM     26  HH  TYR A   7      14.861  11.023   8.177  0.00  0.00    +0.292 HD
ENDBRANCH  22  25
ENDBRANCH  18  19
ENDBRANCH  15  18
ENDBRANCH  12  15
ENDBRANCH  10  11
BRANCH  10  27
ATOM     27  CB  GLU A   6      21.047   6.867  12.375  0.00  0.00    +0.041 C 
BRANCH  27  28
ATOM     28  CG  GLU A   6      21.507   5.740  11.509  0.00  0.00    +0.116 C 
BRANCH  28  29
ATOM     29  CD  GLU A   6      22.305   4.675  12.234  0.00  0.00    +0.365 C 
ATOM     30  OE2 GLU A   6      22.061   4.424  13.434  0.00  0.00    -0.246 OA
ATOM     31  OE1 GLU A   6      23.187   4.079  11.577  0.00  0.00    -0.246 OA
ENDBRANCH  28  29
ENDBRANCH  27  28
ENDBRANCH  10  27
ENDBRANCH   8  10
ENDBRANCH   5   6
BRANCH   5  32
ATOM     32  CB  GLU A   5      16.968   4.254  12.654  0.00  0.00    +0.041 C 
BRANCH  32  33
ATOM     33  CG  GLU A   5      17.354   3.931  14.088  0.00  0.00    +0.116 C 
BRANCH  33  34
ATOM     34  CD  GLU A   5      17.656   2.454  14.290  0.00  0.00    +0.365 C 
ATOM     35  OE2 GLU A   5      17.660   2.043  15.467  0.00  0.00    -0.246 OA
ATOM     36  OE1 GLU A   5      17.918   1.814  13.259  0.00  0.00    -0.246 OA
ENDBRANCH  33  34
ENDBRANCH  32  33
ENDBRANCH   5  32
ENDBRANCH   3   5
BRANCH   1  37
ATOM     37  CA  ASP A   4      14.994   7.282   9.448  0.00  0.00    +0.160 C 
BRANCH  37  40
ATOM     38  C   ASN A   3      13.236   5.600   9.630  0.00  0.00    +0.241 C 
ATOM     39  O   ASN A   3      12.735   6.220  10.570  0.00  0.00    -0.273 OA
ATOM     40  N   ASP A   4      14.301   6.089   9.006  0.00  0.00    -0.297 N 
ATOM     41  H   ASP A   4      14.653   5.594   8.162  0.00  0.00    +0.150 HD
BRANCH  38  42
ATOM     42  CA  ASN A   3      12.642   4.282   9.155  0.00  0.00    +0.158 C 
BRANCH  42  45
ATOM     43  C   ALA A   2      14.733   3.076   8.633  0.00  0.00    +0.241 C 
ATOM     44  O   ALA A   2      15.246   3.223   9.742  0.00  0.00    -0.273 OA
ATOM     45  N   ASN A   3      13.539   3.530   8.336  0.00  0.00    -0.297 N 
ATOM     46  H   ASN A   3      13.200   3.314   7.377  0.00  0.00    +0.150 HD
BRANCH  43  47
ATOM     47  CA  ALA A   2      15.500   2.415   7.494  0.00  0.00    +0.149 C 
ATOM     48  CB  ALA A   2      15.445   0.891   7.606  0.00  0.00    +0.031 C 
BRANCH  47  50
ATOM     49  C   THR A   1      17.180   4.113   7.332  0.00  0.00    +0.241 C 
ATOM     50  N   ALA A   2      16.910   2.822   7.446  0.00  0.00    -0.297 N 
ATOM     51  H   ALA A   2      17.673   2.118   7.500  0.00  0.00    +0.150 HD
ATOM     52  O   THR A   1      16.276   4.951   7.300  0.00  0.00    -0.274 OA
BRANCH  49  53
ATOM     53  CA  THR A   1      18.647   4.493   7.233  0.00  0.00    +0.172 C 
BRANCH  53  54
ATOM     54  N   THR A   1      18.748   5.946   7.200  0.00  0.00    -0.236 NA
ATOM     55  H   THR A   1      19.032   6.436   8.072  0.00  0.00    +0.142 HD
ENDBRANCH  53  54
BRANCH  53  56
ATOM     56  CB  THR A   1      19.450   3.876   8.374  0.00  0.00    +0.135 C 
ATOM     57  CG2 THR A   1      20.925   4.239   8.266  0.00  0.00    +0.034 C 
BRANCH  56  58
ATOM     58  OG1 THR A   1      18.927   4.360   9.618  0.00  0.00    -0.383 OA
ATOM     59  HG1 THR A   1      19.441   3.966  10.367  0.00  0.00    +0.210 HD
ENDBRANCH  56  58
ENDBRANCH  53  56
ENDBRANCH  49  53
ENDBRANCH  47  50
ENDBRANCH  43  47
ENDBRANCH  42  45
BRANCH  42  60
ATOM     60  CB  ASN A   3      12.255   3.417  10.365  0.00  0.00    +0.114 C 
BRANCH  60  61
ATOM     61  CG  ASN A   3      11.554   2.160   9.837  0.00  0.00    +0.222 C 
ATOM     62  OD1 ASN A   3      12.065   1.070  10.060  0.00  0.00    -0.275 OA
ATOM     63  ND2 ASN A   3      10.459   2.420   9.140  0.00  0.00    -0.329 N 
ATOM     64 HD21 ASN A   3      10.134   3.402   9.029  0.00  0.00    +0.145 HD
ATOM     65 HD22 ASN A   3       9.924   1.643   8.704  0.00  0.00    +0.145 HD
ENDBRANCH  60  61
ENDBRANCH  42  60
ENDBRANCH  38  42
ENDBRANCH  37  40
BRANCH  37  66
ATOM     66  CB  ASP A   4      14.139   8.542   9.364  0.00  0.00    +0.143 C 
BRANCH  66  67
ATOM     67  CG  ASP A   4      13.330   8.771   8.112  0.00  0.00    +0.367 C 
ATOM     68  OD2 ASP A   4      12.312   9.480   8.255  0.00  0.00    -0.246 OA
ATOM     69  OD1 ASP A   4      13.660   8.291   7.015  0.00  0.00    -0.246 OA
ENDBRANCH  66  67
ENDBRANCH  37  66
ENDBRANCH   1  37
TORSDOF 29
REMARK  Name = ../refined-set-2016/1bxq/1bxq_pocket.pdb
REMARK  251 active torsions:
REMARK  status: ('A' for Active; 'I' for Inactive)
REMARK    1  A    between atoms: _1  and  _3
REMARK    2  A    between atoms: _3  and  _4
REMARK    3  A    between atoms: _3  and  _6
REMARK    4  A    between atoms: _6  and  _7
REMARK    5  A    between atoms: _10  and  _12
REMARK    6  A    between atoms: _12  and  _13
REMARK    7  A    between atoms: _16  and  _18
REMARK    8  A    between atoms: _18  and  _19
REMARK    9  A    between atoms: _18  and  _21
REMARK   10  A    between atoms: _21  and  _22
REMARK   11  A    between atoms: _27  and  _29
REMARK   12  A    between atoms: _29  and  _30
REMARK   13  A    between atoms: _29  and  _32
REMARK   14  A    between atoms: _32  and  _33
REMARK   15  A    between atoms: _36  and  _38
REMARK   16  A    between atoms: _38  and  _39
REMARK   17  A    between atoms: _38  and  _41
REMARK   18  A    between atoms: _41  and  _42
REMARK   19  A    between atoms: _42  and  _43
REMARK   20  A    between atoms: _46  and  _48
REMARK   21  A    between atoms: _48  and  _49
REMARK   22  A    between atoms: _48  and  _51
REMARK   23  A    between atoms: _51  and  _52
REMARK   24  A    between atoms: _52  and  _53
REMARK   25  A    between atoms: _56  and  _58
REMARK   26  A    between atoms: _58  and  _59
REMARK   27  A    between atoms: _58  and  _61
REMARK   28  A    between atoms: _61  and  _62
REMARK   29  A    between atoms: _67  and  _68
REMARK   30  A    between atoms: _70  and  _72
REMARK   31  A    between atoms: _72  and  _73
REMARK   32  A    between atoms: _72  and  _75
REMARK   33  A    between atoms: _75  and  _76
REMARK   34  A    between atoms: _81  and  _83
REMARK   35  A    between atoms: _83  and  _84
REMARK   36  A    between atoms: _83  and  _86
REMARK   37  A    between atoms: _86  and  _87
REMARK   38  A    between atoms: _93  and  _95
REMARK   39  A    between atoms: _95  and  _96
REMARK   40  A    between atoms: _95  and  _98
REMARK   41  A    between atoms: _98  and  _99
REMARK   42  A    between atoms: _102  and  _104
REMARK   43  A    between atoms: _104  and  _105
REMARK   44  A    between atoms: _104  and  _107
REMARK   45  A    between atoms: _107  and  _108
REMARK   46  A    between atoms: _111  and  _113
REMARK   47  A    between atoms: _113  and  _114
REMARK   48  A    between atoms: _116  and  _118
REMARK   49  A    between atoms: _118  and  _119
REMARK   50  A    between atoms: _118  and  _121
REMARK   51  A    between atoms: _121  and  _122
REMARK   52  A    between atoms: _124  and  _126
REMARK   53  A    between atoms: _126  and  _127
REMARK   54  A    between atoms: _130  and  _132
REMARK   55  A    between atoms: _132  and  _133
REMARK   56  A    between atoms: _132  and  _135
REMARK   57  A    between atoms: _135  and  _136
REMARK   58  A    between atoms: _139  and  _141
REMARK   59  A    between atoms: _141  and  _142
REMARK   60  A    between atoms: _141  and  _144
REMARK   61  A    between atoms: _144  and  _145
REMARK   62  A    between atoms: _155  and  _157
REMARK   63  A    between atoms: _157  and  _158
REMARK   64  A    between atoms: _157  and  _160
REMARK   65  A    between atoms: _160  and  _161
REMARK   66  A    between atoms: _164  and  _166
REMARK   67  A    between atoms: _166  and  _167
REMARK   68  A    between atoms: _166  and  _169
REMARK   69  A    between atoms: _169  and  _170
REMARK   70  A    between atoms: _172  and  _174
REMARK   71  A    between atoms: _174  and  _175
REMARK   72  A    between atoms: _174  and  _177
REMARK   73  A    between atoms: _177  and  _178
REMARK   74  A    between atoms: _183  and  _184
REMARK   75  A    between atoms: _186  and  _188
REMARK   76  A    between atoms: _188  and  _189
REMARK   77  A    between atoms: _191  and  _193
REMARK   78  A    between atoms: _193  and  _194
REMARK   79  A    between atoms: _193  and  _196
REMARK   80  A    between atoms: _196  and  _197
REMARK   81  A    between atoms: _200  and  _202
REMARK   82  A    between atoms: _202  and  _203
REMARK   83  A    between atoms: _205  and  _207
REMARK   84  A    between atoms: _207  and  _208
REMARK   85  A    between atoms: _207  and  _210
REMARK   86  A    between atoms: _210  and  _211
REMARK   87  A    between atoms: _213  and  _215
REMARK   88  A    between atoms: _215  and  _216
REMARK   89  A    between atoms: _215  and  _218
REMARK   90  A    between atoms: _218  and  _219
REMARK   91  A    between atoms: _221  and  _223
REMARK   92  A    between atoms: _223  and  _224
REMARK   93  A    between atoms: _223  and  _226
REMARK   94  A    between atoms: _226  and  _227
REMARK   95  A    between atoms: _229  and  _231
REMARK   96  A    between atoms: _231  and  _232
REMARK   97  A    between atoms: _231  and  _234
REMARK   98  A    between atoms: _234  and  _235
REMARK   99  A    between atoms: _235  and  _236
REMARK  100  A    between atoms: _241  and  _243
REMARK  101  A    between atoms: _243  and  _244
REMARK  102  A    between atoms: _243  and  _246
REMARK  103  A    between atoms: _246  and  _247
REMARK  104  A    between atoms: _253  and  _255
REMARK  105  A    between atoms: _255  and  _256
REMARK  106  A    between atoms: _255  and  _258
REMARK  107  A    between atoms: _258  and  _259
REMARK  108  A    between atoms: _262  and  _264
REMARK  109  A    between atoms: _264  and  _265
REMARK  110  A    between atoms: _264  and  _267
REMARK  111  A    between atoms: _267  and  _268
REMARK  112  A    between atoms: _273  and  _275
REMARK  113  A    between atoms: _275  and  _276
REMARK  114  A    between atoms: _275  and  _278
REMARK  115  A    between atoms: _278  and  _279
REMARK  116  A    between atoms: _284  and  _286
REMARK  117  A    between atoms: _286  and  _287
REMARK  118  A    between atoms: _289  and  _291
REMARK  119  A    between atoms: _291  and  _292
REMARK  120  A    between atoms: _291  and  _294
REMARK  121  A    between atoms: _294  and  _295
REMARK  122  A    between atoms: _298  and  _300
REMARK  123  A    between atoms: _300  and  _301
REMARK  124  A    between atoms: _300  and  _303
REMARK  125  A    between atoms: _303  and  _304
REMARK  126  A    between atoms: _307  and  _309
REMARK  127  A    between atoms: _309  and  _310
REMARK  128  A    between atoms: _312  and  _314
REMARK  129  A    between atoms: _314  and  _315
REMARK  130  A    between atoms: _314  and  _317
REMARK  131  A    between atoms: _317  and  _318
REMARK  132  A    between atoms: _321  and  _323
REMARK  133  A    between atoms: _323  and  _324
REMARK  134  A    between atoms: _327  and  _329
REMARK  135  A    between atoms: _329  and  _330
REMARK  136  A    between atoms: _329  and  _332
REMARK  137  A    between atoms: _332  and  _333
REMARK  138  A    between atoms: _336  and  _338
REMARK  139  A    between atoms: _338  and  _339
REMARK  140  A    between atoms: _338  and  _341
REMARK  141  A    between atoms: _341  and  _342
REMARK  142  A    between atoms: _342  and  _343
REMARK  143  A    between atoms: _348  and  _350
REMARK  144  A    between atoms: _350  and  _351
REMARK  145  A    between atoms: _350  and  _353
REMARK  146  A    between atoms: _353  and  _354
REMARK  147  A    between atoms: _360  and  _362
REMARK  148  A    between atoms: _362  and  _363
REMARK  149  A    between atoms: _362  and  _365
REMARK  150  A    between atoms: _365  and  _366
REMARK  151  A    between atoms: _376  and  _378
REMARK  152  A    between atoms: _378  and  _379
REMARK  153  A    between atoms: _378  and  _381
REMARK  154  A    between atoms: _381  and  _382
REMARK  155  A    between atoms: _385  and  _387
REMARK  156  A    between atoms: _387  and  _388
REMARK  157  A    between atoms: _391  and  _393
REMARK  158  A    between atoms: _393  and  _394
REMARK  159  A    between atoms: _393  and  _396
REMARK  160  A    between atoms: _396  and  _397
REMARK  161  A    between atoms: _400  and  _402
REMARK  162  A    between atoms: _402  and  _403
REMARK  163  A    between atoms: _402  and  _405
REMARK  164  A    between atoms: _405  and  _406
REMARK  165  A    between atoms: _409  and  _411
REMARK  166  A    between atoms: _411  and  _412
REMARK  167  A    between atoms: _414  and  _416
REMARK  168  A    between atoms: _416  and  _417
REMARK  169  A    between atoms: _416  and  _419
REMARK  170  A    between atoms: _419  and  _420
REMARK  171  A    between atoms: _423  and  _425
REMARK  172  A    between atoms: _425  and  _426
REMARK  173  A    between atoms: _425  and  _428
REMARK  174  A    between atoms: _428  and  _429
REMARK  175  A    between atoms: _432  and  _434
REMARK  176  A    between atoms: _434  and  _435
REMARK  177  A    between atoms: _434  and  _437
REMARK  178  A    between atoms: _437  and  _438
REMARK  179  A    between atoms: _441  and  _443
REMARK  180  A    between atoms: _443  and  _444
REMARK  181  A    between atoms: _443  and  _446
REMARK  182  A    between atoms: _446  and  _447
REMARK  183  A    between atoms: _450  and  _452
REMARK  184  A    between atoms: _452  and  _453
REMARK  185  A    between atoms: _452  and  _455
REMARK  186  A    between atoms: _455  and  _456
REMARK  187  A    between atoms: _459  and  _461
REMARK  188  A    between atoms: _461  and  _462
REMARK  189  A    between atoms: _465  and  _467
REMARK  190  A    between atoms: _467  and  _468
REMARK  191  A    between atoms: _470  and  _472
REMARK  192  A    between atoms: _472  and  _473
REMARK  193  A    between atoms: _475  and  _477
REMARK  194  A    between atoms: _477  and  _478
REMARK  195  A    between atoms: _477  and  _480
REMARK  196  A    between atoms: _480  and  _481
REMARK  197  A    between atoms: _486  and  _487
REMARK  198  A    between atoms: _490  and  _491
REMARK  199  A    between atoms: _496  and  _498
REMARK  200  A    between atoms: _498  and  _499
REMARK  201  A    between atoms: _498  and  _501
REMARK  202  A    between atoms: _501  and  _502
REMARK  203  A    between atoms: _504  and  _506
REMARK  204  A    between atoms: _506  and  _507
REMARK  205  A    between atoms: _506  and  _509
REMARK  206  A    between atoms: _509  and  _510
REMARK  207  A    between atoms: _513  and  _515
REMARK  208  A    between atoms: _515  and  _516
REMARK  209  A    between atoms: _518  and  _520
REMARK  210  A    between atoms: _520  and  _521
REMARK  211  A    between atoms: _520  and  _523
REMARK  212  A    between atoms: _523  and  _524
REMARK  213  A    between atoms: _524  and  _525
REMARK  214  A    between atoms: _530  and  _532
REMARK  215  A    between atoms: _532  and  _533
REMARK  216  A    between atoms: _532  and  _535
REMARK  217  A    between atoms: _535  and  _536
REMARK  218  A    between atoms: _538  and  _540
REMARK  219  A    between atoms: _540  and  _541
REMARK  220  A    between atoms: _540  and  _543
REMARK  221  A    between atoms: _543  and  _544
REMARK  222  A    between atoms: _549  and  _551
REMARK  223  A    between atoms: _551  and  _552
REMARK  224  A    between atoms: _551  and  _554
REMARK  225  A    between atoms: _554  and  _555
REMARK  226  A    between atoms: _557  and  _559
REMARK  227  A    between atoms: _559  and  _560
REMARK  228  A    between atoms: _559  and  _562
REMARK  229  A    between atoms: _562  and  _563
REMARK  230  A    between atoms: _566  and  _568
REMARK  231  A    between atoms: _568  and  _569
REMARK  232  A    between atoms: _568  and  _571
REMARK  233  A    between atoms: _571  and  _572
REMARK  234  A    between atoms: _578  and  _580
REMARK  235  A    between atoms: _580  and  _581
REMARK  236  A    between atoms: _580  and  _583
REMARK  237  A    between atoms: _583  and  _584
REMARK  238  A    between atoms: _586  and  _588
REMARK  239  A    between atoms: _588  and  _589
REMARK  240  A    between atoms: _588  and  _591
REMARK  241  A    between atoms: _591  and  _592
REMARK  242  A    between atoms: _595  and  _597
REMARK  243  A    between atoms: _597  and  _598
REMARK  244  A    between atoms: _597  and  _600
REMARK  245  A    between atoms: _600  and  _601
REMARK  246  A    between atoms: _607  and  _609
REMARK  247  A    between atoms: _609  and  _610
REMARK  248  A    between atoms: _612  and  _614
REMARK  249  A    between atoms: _614  and  _615
REMARK  250  A    between atoms: _614  and  _617
REMARK  251  A    between atoms: _617  and  _618
REMARK                            x       y       z     vdW  Elec       q    Type
REMARK                         _______ _______ _______ _____ _____    ______ ____
ROOT
ATOM      1  CA  THR A   4      24.927  17.719  16.874  0.00  0.00    +0.176 C 
ENDROOT
BRANCH   1   2
ATOM      2  C   THR A   4      24.771  17.628  18.382  0.00  0.00    +0.243 C 
ATOM      3  O   THR A   4      24.886  18.690  19.040  0.00  0.00    -0.273 OA
ATOM      4  N   GLY A   5      24.554  16.435  18.918  0.00  0.00    -0.295 N 
ATOM      5  H   GLY A   5      24.450  15.637  18.259  0.00  0.00    +0.150 HD
BRANCH   4   6
ATOM      6  CA  GLY A   5      24.448  16.136  20.319  0.00  0.00    +0.176 C 
BRANCH   6   7
ATOM      7  C   GLY A   5      25.721  15.697  21.009  0.00  0.00    +0.243 C 
ATOM      8  O   GLY A   5      25.692  15.454  22.225  0.00  0.00    -0.273 OA
ATOM      9  N   SER A   6      26.814  15.533  20.255  0.00  0.00    -0.295 N 
ATOM     10  H   SER A   6      26.753  15.659  19.224  0.00  0.00    +0.150 HD
BRANCH   9  11
ATOM     11  CA  SER A   6      28.097  15.178  20.868  0.00  0.00    +0.178 C 
BRANCH  11  12
ATOM     12  C   SER A   6      29.212  15.798  20.079  0.00  0.00    +0.243 C 
ATOM     13  N   ALA A   7      30.448  15.715  20.579  0.00  0.00    -0.297 N 
ATOM     14  H   ALA A   7      30.629  15.083  21.385  0.00  0.00    +0.150 HD
ATOM     15  O   SER A   6      28.988  16.361  18.999  0.00  0.00    -0.273 OA
BRANCH  13  16
ATOM     16  CA  ALA A   7      31.552  16.492  20.020  0.00  0.00    +0.149 C 
ATOM     17  CB  ALA A   7      31.956  17.605  20.987  0.00  0.00    +0.031 C 
BRANCH  16  18
ATOM     18  C   ALA A   7      32.762  15.658  19.643  0.00  0.00    +0.241 C 
ATOM     19  O   ALA A   7      33.853  16.173  19.522  0.00  0.00    -0.273 OA
ATOM     20  N   ASP A   8      32.544  14.361  19.404  0.00  0.00    -0.298 N 
ATOM     21  H   ASP A   8      31.572  13.994  19.457  0.00  0.00    +0.150 HD
BRANCH  20  22
ATOM     22  CA  ASP A   8      33.619  13.456  19.075  0.00  0.00    +0.148 C 
BRANCH  22  23
ATOM     23  C   ASP A   8      33.464  12.927  17.657  0.00  0.00    +0.227 C 
ATOM     24  O   ASP A   8      32.366  12.562  17.221  0.00  0.00    -0.286 OA
ENDBRANCH  22  23
BRANCH  22  25
ATOM     25  CB  ASP A   8      33.659  12.272  20.043  0.00  0.00    +0.142 C 
BRANCH  25  26
ATOM     26  CG  ASP A   8      34.204  12.610  21.410  0.00  0.00    +0.367 C 
ATOM     27  OD2 ASP A   8      33.698  13.585  21.997  0.00  0.00    -0.246 OA
ATOM     28  OD1 ASP A   8      35.152  11.950  21.903  0.00  0.00    -0.246 OA
ENDBRANCH  25  26
ENDBRANCH  22  25
ENDBRANCH  20  22
ENDBRANCH  16  18
ENDBRANCH  13  16
ENDBRANCH  11  12
BRANCH  11  29
ATOM     29  CB  SER A   6      28.299  13.670  20.950  0.00  0.00    +0.166 C 
BRANCH  29  30
ATOM     30  OG  SER A   6      28.430  13.144  19.631  0.00  0.00    -0.380 OA
ATOM     31  H   SER A   6      27.609  13.343  19.115  0.00  0.00    +0.211 HD
ENDBRANCH  29  30
ENDBRANCH  11  29
ENDBRANCH   9  11
ENDBRANCH   6   7
ENDBRANCH   4   6
ENDBRANCH   1   2
BRANCH   1  34
ATOM     32  C   ASP A   3      25.858  15.550  16.319  0.00  0.00    +0.241 C 
ATOM     33  O   ASP A   3      26.871  15.752  16.961  0.00  0.00    -0.273 OA
ATOM     34  N   THR A   4      24.863  16.430  16.190  0.00  0.00    -0.295 N 
ATOM     35  H   THR A   4      24.039  16.197  15.600  0.00  0.00    +0.150 HD
BRANCH  32  36
ATOM     36  CA  ASP A   3      25.677  14.227  15.600  0.00  0.00    +0.160 C 
BRANCH  36  38
ATOM     37  C   PHE A   2      25.713  13.755  13.220  0.00  0.00    +0.241 C 
ATOM     38  N   ASP A   3      26.341  14.194  14.310  0.00  0.00    -0.297 N 
ATOM     39  H   ASP A   3      27.326  14.519  14.235  0.00  0.00    +0.150 HD
ATOM     40  O   PHE A   2      24.490  13.607  13.123  0.00  0.00    -0.273 OA
BRANCH  37  41
ATOM     41  CA  PHE A   2      26.597  13.416  12.015  0.00  0.00    +0.153 C 
BRANCH  41  44
ATOM     42  C   ASN A   1      26.787  11.005  12.260  0.00  0.00    +0.239 C 
ATOM     43  O   ASN A   1      27.500  11.137  13.261  0.00  0.00    -0.274 OA
ATOM     44  N   PHE A   2      26.329  12.053  11.568  0.00  0.00    -0.297 N 
ATOM     45  H   PHE A   2      25.776  11.895  10.702  0.00  0.00    +0.150 HD
BRANCH  42  46
ATOM     46  CA  ASN A   1      26.452   9.612  11.717  0.00  0.00    +0.154 C 
BRANCH  46  47
ATOM     47  N   ASN A   1      27.657   9.073  11.135  0.00  0.00    -0.238 NA
ATOM     48  H   ASN A   1      28.283   8.531  11.764  0.00  0.00    +0.142 HD
ENDBRANCH  46  47
BRANCH  46  49
ATOM     49  CB  ASN A   1      25.941   8.659  12.791  0.00  0.00    +0.111 C 
BRANCH  49  50
ATOM     50  CG  ASN A   1      24.649   9.089  13.416  0.00  0.00    +0.221 C 
ATOM     51  ND2 ASN A   1      24.050   8.242  14.198  0.00  0.00    -0.329 N 
ATOM     52 HD21 ASN A   1      23.162   8.508  14.670  0.00  0.00    +0.145 HD
ATOM     53 HD22 ASN A   1      24.458   7.298  14.352  0.00  0.00    +0.145 HD
ATOM     54  OD1 ASN A   1      24.186  10.220  13.214  0.00  0.00    -0.275 OA
ENDBRANCH  49  50
ENDBRANCH  46  49
ENDBRANCH  42  46
ENDBRANCH  41  44
BRANCH  41  55
ATOM     55  CB  PHE A   2      26.339  14.439  10.907  0.00  0.00    +0.055 C 
BRANCH  55  56
ATOM     56  CG  PHE A   2      27.432  14.531   9.871  0.00  0.00    -0.020 A 
ATOM     57  CD2 PHE A   2      28.241  13.420   9.604  0.00  0.00    -0.004 A 
ATOM     58  CE2 PHE A   2      29.212  13.499   8.650  0.00  0.00    -0.000 A 
ATOM     59  CZ  PHE A   2      29.454  14.679   7.970  0.00  0.00    -0.000 A 
ATOM     60  CE1 PHE A   2      28.640  15.788   8.220  0.00  0.00    -0.000 A 
ATOM     61  CD1 PHE A   2      27.668  15.706   9.175  0.00  0.00    -0.004 A 
ENDBRANCH  55  56
ENDBRANCH  41  55
ENDBRANCH  37  41
ENDBRANCH  36  38
BRANCH  36  62
ATOM     62  CB  ASP A   3      26.148  13.072  16.483  0.00  0.00    +0.143 C 
BRANCH  62  63
ATOM     63  CG  ASP A   3      25.457  13.092  17.814  0.00  0.00    +0.367 C 
ATOM     64  OD2 ASP A   3      25.971  12.412  18.723  0.00  0.00    -0.246 OA
ATOM     65  OD1 ASP A   3      24.408  13.777  17.969  0.00  0.00    -0.246 OA
ENDBRANCH  62  63
ENDBRANCH  36  62
ENDBRANCH  32  36
ENDBRANCH   1  34
BRANCH   1  66
ATOM     66  CB  THR A   4      23.909  18.752  16.345  0.00  0.00    +0.137 C 
ATOM     67  CG2 THR A   4      24.087  19.000  14.857  0.00  0.00    +0.034 C 
BRANCH  66  68
ATOM     68  OG1 THR A   4      22.578  18.307  16.534  0.00  0.00    -0.382 OA
ATOM     69  HG1 THR A   4      22.412  18.167  17.500  0.00  0.00    +0.210 HD
ENDBRANCH  66  68
ENDBRANCH   1  66
TORSDOF 28
REMARK  Name = ../refined-set-2016/1bxq/1bxq_pocket.pdb
REMARK  251 active torsions:
REMARK  status: ('A' for Active; 'I' for Inactive)
REMARK    1  A    between atoms: _1  and  _3
REMARK    2  A    between atoms: _3  and  _4
REMARK    3  A    between atoms: _3  and  _6
REMARK    4  A    between atoms: _6  and  _7
REMARK    5  A    between atoms: _10  and  _12
REMARK    6  A    between atoms: _12  and  _13
REMARK    7  A    between atoms: _16  and  _18
REMARK    8  A    between atoms: _18  and  _19
REMARK    9  A    between atoms: _18  and  _21
REMARK   10  A    between atoms: _21  and  _22
REMARK   11  A    between atoms: _27  and  _29
REMARK   12  A    between atoms: _29  and  _30
REMARK   13  A    between atoms: _29  and  _32
REMARK   14  A    between atoms: _32  and  _33
REMARK   15  A    between atoms: _36  and  _38
REMARK   16  A    between atoms: _38  and  _39
REMARK   17  A    between atoms: _38  and  _41
REMARK   18  A    between atoms: _41  and  _42
REMARK   19  A    between atoms: _42  and  _43
REMARK   20  A    between atoms: _46  and  _48
REMARK   21  A    between atoms: _48  and  _49
REMARK   22  A    between atoms: _48  and  _51
REMARK   23  A    between atoms: _51  and  _52
REMARK   24  A    between atoms: _52  and  _53
REMARK   25  A    between atoms: _56  and  _58
REMARK   26  A    between atoms: _58  and  _59
REMARK   27  A    between atoms: _58  and  _61
REMARK   28  A    between atoms: _61  and  _62
REMARK   29  A    between atoms: _67  and  _68
REMARK   30  A    between atoms: _70  and  _72
REMARK   31  A    between atoms: _72  and  _73
REMARK   32  A    between atoms: _72  and  _75
REMARK   33  A    between atoms: _75  and  _76
REMARK   34  A    between atoms: _81  and  _83
REMARK   35  A    between atoms: _83  and  _84
REMARK   36  A    between atoms: _83  and  _86
REMARK   37  A    between atoms: _86  and  _87
REMARK   38  A    between atoms: _93  and  _95
REMARK   39  A    between atoms: _95  and  _96
REMARK   40  A    between atoms: _95  and  _98
REMARK   41  A    between atoms: _98  and  _99
REMARK   42  A    between atoms: _102  and  _104
REMARK   43  A    between atoms: _104  and  _105
REMARK   44  A    between atoms: _104  and  _107
REMARK   45  A    between atoms: _107  and  _108
REMARK   46  A    between atoms: _111  and  _113
REMARK   47  A    between atoms: _113  and  _114
REMARK   48  A    between atoms: _116  and  _118
REMARK   49  A    between atoms: _118  and  _119
REMARK   50  A    between atoms: _118  and  _121
REMARK   51  A    between atoms: _121  and  _122
REMARK   52  A    between atoms: _124  and  _126
REMARK   53  A    between atoms: _126  and  _127
REMARK   54  A    between atoms: _130  and  _132
REMARK   55  A    between atoms: _132  and  _133
REMARK   56  A    between atoms: _132  and  _135
REMARK   57  A    between atoms: _135  and  _136
REMARK   58  A    between atoms: _139  and  _141
REMARK   59  A    between atoms: _141  and  _142
REMARK   60  A    between atoms: _141  and  _144
REMARK   61  A    between atoms: _144  and  _145
REMARK   62  A    between atoms: _155  and  _157
REMARK   63  A    between atoms: _157  and  _158
REMARK   64  A    between atoms: _157  and  _160
REMARK   65  A    between atoms: _160  and  _161
REMARK   66  A    between atoms: _164  and  _166
REMARK   67  A    between atoms: _166  and  _167
REMARK   68  A    between atoms: _166  and  _169
REMARK   69  A    between atoms: _169  and  _170
REMARK   70  A    between atoms: _172  and  _174
REMARK   71  A    between atoms: _174  and  _175
REMARK   72  A    between atoms: _174  and  _177
REMARK   73  A    between atoms: _177  and  _178
REMARK   74  A    between atoms: _183  and  _184
REMARK   75  A    between atoms: _186  and  _188
REMARK   76  A    between atoms: _188  and  _189
REMARK   77  A    between atoms: _191  and  _193
REMARK   78  A    between atoms: _193  and  _194
REMARK   79  A    between atoms: _193  and  _196
REMARK   80  A    between atoms: _196  and  _197
REMARK   81  A    between atoms: _200  and  _202
REMARK   82  A    between atoms: _202  and  _203
REMARK   83  A    between atoms: _205  and  _207
REMARK   84  A    between atoms: _207  and  _208
REMARK   85  A    between atoms: _207  and  _210
REMARK   86  A    between atoms: _210  and  _211
REMARK   87  A    between atoms: _213  and  _215
REMARK   88  A    between atoms: _215  and  _216
REMARK   89  A    between atoms: _215  and  _218
REMARK   90  A    between atoms: _218  and  _219
REMARK   91  A    between atoms: _221  and  _223
REMARK   92  A    between atoms: _223  and  _224
REMARK   93  A    between atoms: _223  and  _226
REMARK   94  A    between atoms: _226  and  _227
REMARK   95  A    between atoms: _229  and  _231
REMARK   96  A    between atoms: _231  and  _232
REMARK   97  A    between atoms: _231  and  _234
REMARK   98  A    between atoms: _234  and  _235
REMARK   99  A    between atoms: _235  and  _236
REMARK  100  A    between atoms: _241  and  _243
REMARK  101  A    between atoms: _243  and  _244
REMARK  102  A    between atoms: _243  and  _246
REMARK  103  A    between atoms: _246  and  _247
REMARK  104  A    between atoms: _253  and  _255
REMARK  105  A    between atoms: _255  and  _256
REMARK  106  A    between atoms: _255  and  _258
REMARK  107  A    between atoms: _258  and  _259
REMARK  108  A    between atoms: _262  and  _264
REMARK  109  A    between atoms: _264  and  _265
REMARK  110  A    between atoms: _264  and  _267
REMARK  111  A    between atoms: _267  and  _268
REMARK  112  A    between atoms: _273  and  _275
REMARK  113  A    between atoms: _275  and  _276
REMARK  114  A    between atoms: _275  and  _278
REMARK  115  A    between atoms: _278  and  _279
REMARK  116  A    between atoms: _284  and  _286
REMARK  117  A    between atoms: _286  and  _287
REMARK  118  A    between atoms: _289  and  _291
REMARK  119  A    between atoms: _291  and  _292
REMARK  120  A    between atoms: _291  and  _294
REMARK  121  A    between atoms: _294  and  _295
REMARK  122  A    between atoms: _298  and  _300
REMARK  123  A    between atoms: _300  and  _301
REMARK  124  A    between atoms: _300  and  _303
REMARK  125  A    between atoms: _303  and  _304
REMARK  126  A    between atoms: _307  and  _309
REMARK  127  A    between atoms: _309  and  _310
REMARK  128  A    between atoms: _312  and  _314
REMARK  129  A    between atoms: _314  and  _315
REMARK  130  A    between atoms: _314  and  _317
REMARK  131  A    between atoms: _317  and  _318
REMARK  132  A    between atoms: _321  and  _323
REMARK  133  A    between atoms: _323  and  _324
REMARK  134  A    between atoms: _327  and  _329
REMARK  135  A    between atoms: _329  and  _330
REMARK  136  A    between atoms: _329  and  _332
REMARK  137  A    between atoms: _332  and  _333
REMARK  138  A    between atoms: _336  and  _338
REMARK  139  A    between atoms: _338  and  _339
REMARK  140  A    between atoms: _338  and  _341
REMARK  141  A    between atoms: _341  and  _342
REMARK  142  A    between atoms: _342  and  _343
REMARK  143  A    between atoms: _348  and  _350
REMARK  144  A    between atoms: _350  and  _351
REMARK  145  A    between atoms: _350  and  _353
REMARK  146  A    between atoms: _353  and  _354
REMARK  147  A    between atoms: _360  and  _362
REMARK  148  A    between atoms: _362  and  _363
REMARK  149  A    between atoms: _362  and  _365
REMARK  150  A    between atoms: _365  and  _366
REMARK  151  A    between atoms: _376  and  _378
REMARK  152  A    between atoms: _378  and  _379
REMARK  153  A    between atoms: _378  and  _381
REMARK  154  A    between atoms: _381  and  _382
REMARK  155  A    between atoms: _385  and  _387
REMARK  156  A    between atoms: _387  and  _388
REMARK  157  A    between atoms: _391  and  _393
REMARK  158  A    between atoms: _393  and  _394
REMARK  159  A    between atoms: _393  and  _396
REMARK  160  A    between atoms: _396  and  _397
REMARK  161  A    between atoms: _400  and  _402
REMARK  162  A    between atoms: _402  and  _403
REMARK  163  A    between atoms: _402  and  _405
REMARK  164  A    between atoms: _405  and  _406
REMARK  165  A    between atoms: _409  and  _411
REMARK  166  A    between atoms: _411  and  _412
REMARK  167  A    between atoms: _414  and  _416
REMARK  168  A    between atoms: _416  and  _417
REMARK  169  A    between atoms: _416  and  _419
REMARK  170  A    between atoms: _419  and  _420
REMARK  171  A    between atoms: _423  and  _425
REMARK  172  A    between atoms: _425  and  _426
REMARK  173  A    between atoms: _425  and  _428
REMARK  174  A    between atoms: _428  and  _429
REMARK  175  A    between atoms: _432  and  _434
REMARK  176  A    between atoms: _434  and  _435
REMARK  177  A    between atoms: _434  and  _437
REMARK  178  A    between atoms: _437  and  _438
REMARK  179  A    between atoms: _441  and  _443
REMARK  180  A    between atoms: _443  and  _444
REMARK  181  A    between atoms: _443  and  _446
REMARK  182  A    between atoms: _446  and  _447
REMARK  183  A    between atoms: _450  and  _452
REMARK  184  A    between atoms: _452  and  _453
REMARK  185  A    between atoms: _452  and  _455
REMARK  186  A    between atoms: _455  and  _456
REMARK  187  A    between atoms: _459  and  _461
REMARK  188  A    between atoms: _461  and  _462
REMARK  189  A    between atoms: _465  and  _467
REMARK  190  A    between atoms: _467  and  _468
REMARK  191  A    between atoms: _470  and  _472
REMARK  192  A    between atoms: _472  and  _473
REMARK  193  A    between atoms: _475  and  _477
REMARK  194  A    between atoms: _477  and  _478
REMARK  195  A    between atoms: _477  and  _480
REMARK  196  A    between atoms: _480  and  _481
REMARK  197  A    between atoms: _486  and  _487
REMARK  198  A    between atoms: _490  and  _491
REMARK  199  A    between atoms: _496  and  _498
REMARK  200  A    between atoms: _498  and  _499
REMARK  201  A    between atoms: _498  and  _501
REMARK  202  A    between atoms: _501  and  _502
REMARK  203  A    between atoms: _504  and  _506
REMARK  204  A    between atoms: _506  and  _507
REMARK  205  A    between atoms: _506  and  _509
REMARK  206  A    between atoms: _509  and  _510
REMARK  207  A    between atoms: _513  and  _515
REMARK  208  A    between atoms: _515  and  _516
REMARK  209  A    between atoms: _518  and  _520
REMARK  210  A    between atoms: _520  and  _521
REMARK  211  A    between atoms: _520  and  _523
REMARK  212  A    between atoms: _523  and  _524
REMARK  213  A    between atoms: _524  and  _525
REMARK  214  A    between atoms: _530  and  _532
REMARK  215  A    between atoms: _532  and  _533
REMARK  216  A    between atoms: _532  and  _535
REMARK  217  A    between atoms: _535  and  _536
REMARK  218  A    between atoms: _538  and  _540
REMARK  219  A    between atoms: _540  and  _541
REMARK  220  A    between atoms: _540  and  _543
REMARK  221  A    between atoms: _543  and  _544
REMARK  222  A    between atoms: _549  and  _551
REMARK  223  A    between atoms: _551  and  _552
REMARK  224  A    between atoms: _551  and  _554
REMARK  225  A    between atoms: _554  and  _555
REMARK  226  A    between atoms: _557  and  _559
REMARK  227  A    between atoms: _559  and  _560
REMARK  228  A    between atoms: _559  and  _562
REMARK  229  A    between atoms: _562  and  _563
REMARK  230  A    between atoms: _566  and  _568
REMARK  231  A    between atoms: _568  and  _569
REMARK  232  A    between atoms: _568  and  _571
REMARK  233  A    between atoms: _571  and  _572
REMARK  234  A    between atoms: _578  and  _580
REMARK  235  A    between atoms: _580  and  _581
REMARK  236  A    between atoms: _580  and  _583
REMARK  237  A    between atoms: _583  and  _584
REMARK  238  A    between atoms: _586  and  _588
REMARK  239  A    between atoms: _588  and  _589
REMARK  240  A    between atoms: _588  and  _591
REMARK  241  A    between atoms: _591  and  _592
REMARK  242  A    between atoms: _595  and  _597
REMARK  243  A    between atoms: _597  and  _598
REMARK  244  A    between atoms: _597  and  _600
REMARK  245  A    between atoms: _600  and  _601
REMARK  246  A    between atoms: _607  and  _609
REMARK  247  A    between atoms: _609  and  _610
REMARK  248  A    between atoms: _612  and  _614
REMARK  249  A    between atoms: _614  and  _615
REMARK  250  A    between atoms: _614  and  _617
REMARK  251  A    between atoms: _617  and  _618
REMARK                            x       y       z     vdW  Elec       q    Type
REMARK                         _______ _______ _______ _____ _____    ______ ____
ROOT
ATOM      1  CG  TRP A   1      33.490   7.475  17.726  0.00  0.00    -0.002 A 
ATOM      2  CD1 TRP A   1      32.456   8.098  18.339  0.00  0.00    +0.068 A 
ATOM      3  NE1 TRP A   1      31.345   7.305  18.402  0.00  0.00    -0.352 N 
ATOM      4  HE1 TRP A   1      30.426   7.563  18.815  0.00  0.00    +0.166 HD
ATOM      5  CE2 TRP A   1      31.666   6.108  17.821  0.00  0.00    +0.056 A 
ATOM      6  CZ2 TRP A   1      30.851   4.986  17.660  0.00  0.00    +0.017 A 
ATOM      7  CH2 TRP A   1      31.425   3.918  17.040  0.00  0.00    +0.001 A 
ATOM      8  CZ3 TRP A   1      32.745   3.938  16.596  0.00  0.00    +0.000 A 
ATOM      9  CE3 TRP A   1      33.534   5.044  16.762  0.00  0.00    +0.001 A 
ATOM     10  CD2 TRP A   1      32.989   6.172  17.385  0.00  0.00    +0.013 A 
ENDROOT
BRANCH   1  11
ATOM     11  CB  TRP A   1      34.868   7.988  17.466  0.00  0.00    +0.053 C 
BRANCH  11  12
ATOM     12  CA  TRP A   1      35.212   8.546  16.109  0.00  0.00    +0.137 C 
BRANCH  12  13
ATOM     13  N   TRP A   1      34.609   9.857  15.860  0.00  0.00    -0.239 NA
ATOM     14  H   TRP A   1      33.590   9.945  15.669  0.00  0.00    +0.142 HD
ENDBRANCH  12  13
BRANCH  12  15
ATOM     15  C   TRP A   1      34.786   7.614  14.985  0.00  0.00    +0.224 C 
ATOM     16  O   TRP A   1      33.720   7.758  14.409  0.00  0.00    -0.287 OA
ENDBRANCH  12  15
ENDBRANCH  11  12
ENDBRANCH   1  11
TORSDOF 4
REMARK  Name = ../refined-set-2016/1bxq/1bxq_pocket.pdb
REMARK  251 active torsions:
REMARK  status: ('A' for Active; 'I' for Inactive)
REMARK    1  A    between atoms: _1  and  _3
REMARK    2  A    between atoms: _3  and  _4
REMARK    3  A    between atoms: _3  and  _6
REMARK    4  A    between atoms: _6  and  _7
REMARK    5  A    between atoms: _10  and  _12
REMARK    6  A    between atoms: _12  and  _13
REMARK    7  A    between atoms: _16  and  _18
REMARK    8  A    between atoms: _18  and  _19
REMARK    9  A    between atoms: _18  and  _21
REMARK   10  A    between atoms: _21  and  _22
REMARK   11  A    between atoms: _27  and  _29
REMARK   12  A    between atoms: _29  and  _30
REMARK   13  A    between atoms: _29  and  _32
REMARK   14  A    between atoms: _32  and  _33
REMARK   15  A    between atoms: _36  and  _38
REMARK   16  A    between atoms: _38  and  _39
REMARK   17  A    between atoms: _38  and  _41
REMARK   18  A    between atoms: _41  and  _42
REMARK   19  A    between atoms: _42  and  _43
REMARK   20  A    between atoms: _46  and  _48
REMARK   21  A    between atoms: _48  and  _49
REMARK   22  A    between atoms: _48  and  _51
REMARK   23  A    between atoms: _51  and  _52
REMARK   24  A    between atoms: _52  and  _53
REMARK   25  A    between atoms: _56  and  _58
REMARK   26  A    between atoms: _58  and  _59
REMARK   27  A    between atoms: _58  and  _61
REMARK   28  A    between atoms: _61  and  _62
REMARK   29  A    between atoms: _67  and  _68
REMARK   30  A    between atoms: _70  and  _72
REMARK   31  A    between atoms: _72  and  _73
REMARK   32  A    between atoms: _72  and  _75
REMARK   33  A    between atoms: _75  and  _76
REMARK   34  A    between atoms: _81  and  _83
REMARK   35  A    between atoms: _83  and  _84
REMARK   36  A    between atoms: _83  and  _86
REMARK   37  A    between atoms: _86  and  _87
REMARK   38  A    between atoms: _93  and  _95
REMARK   39  A    between atoms: _95  and  _96
REMARK   40  A    between atoms: _95  and  _98
REMARK   41  A    between atoms: _98  and  _99
REMARK   42  A    between atoms: _102  and  _104
REMARK   43  A    between atoms: _104  and  _105
REMARK   44  A    between atoms: _104  and  _107
REMARK   45  A    between atoms: _107  and  _108
REMARK   46  A    between atoms: _111  and  _113
REMARK   47  A    between atoms: _113  and  _114
REMARK   48  A    between atoms: _116  and  _118
REMARK   49  A    between atoms: _118  and  _119
REMARK   50  A    between atoms: _118  and  _121
REMARK   51  A    between atoms: _121  and  _122
REMARK   52  A    between atoms: _124  and  _126
REMARK   53  A    between atoms: _126  and  _127
REMARK   54  A    between atoms: _130  and  _132
REMARK   55  A    between atoms: _132  and  _133
REMARK   56  A    between atoms: _132  and  _135
REMARK   57  A    between atoms: _135  and  _136
REMARK   58  A    between atoms: _139  and  _141
REMARK   59  A    between atoms: _141  and  _142
REMARK   60  A    between atoms: _141  and  _144
REMARK   61  A    between atoms: _144  and  _145
REMARK   62  A    between atoms: _155  and  _157
REMARK   63  A    between atoms: _157  and  _158
REMARK   64  A    between atoms: _157  and  _160
REMARK   65  A    between atoms: _160  and  _161
REMARK   66  A    between atoms: _164  and  _166
REMARK   67  A    between atoms: _166  and  _167
REMARK   68  A    between atoms: _166  and  _169
REMARK   69  A    between atoms: _169  and  _170
REMARK   70  A    between atoms: _172  and  _174
REMARK   71  A    between atoms: _174  and  _175
REMARK   72  A    between atoms: _174  and  _177
REMARK   73  A    between atoms: _177  and  _178
REMARK   74  A    between atoms: _183  and  _184
REMARK   75  A    between atoms: _186  and  _188
REMARK   76  A    between atoms: _188  and  _189
REMARK   77  A    between atoms: _191  and  _193
REMARK   78  A    between atoms: _193  and  _194
REMARK   79  A    between atoms: _193  and  _196
REMARK   80  A    between atoms: _196  and  _197
REMARK   81  A    between atoms: _200  and  _202
REMARK   82  A    between atoms: _202  and  _203
REMARK   83  A    between atoms: _205  and  _207
REMARK   84  A    between atoms: _207  and  _208
REMARK   85  A    between atoms: _207  and  _210
REMARK   86  A    between atoms: _210  and  _211
REMARK   87  A    between atoms: _213  and  _215
REMARK   88  A    between atoms: _215  and  _216
REMARK   89  A    between atoms: _215  and  _218
REMARK   90  A    between atoms: _218  and  _219
REMARK   91  A    between atoms: _221  and  _223
REMARK   92  A    between atoms: _223  and  _224
REMARK   93  A    between atoms: _223  and  _226
REMARK   94  A    between atoms: _226  and  _227
REMARK   95  A    between atoms: _229  and  _231
REMARK   96  A    between atoms: _231  and  _232
REMARK   97  A    between atoms: _231  and  _234
REMARK   98  A    between atoms: _234  and  _235
REMARK   99  A    between atoms: _235  and  _236
REMARK  100  A    between atoms: _241  and  _243
REMARK  101  A    between atoms: _243  and  _244
REMARK  102  A    between atoms: _243  and  _246
REMARK  103  A    between atoms: _246  and  _247
REMARK  104  A    between atoms: _253  and  _255
REMARK  105  A    between atoms: _255  and  _256
REMARK  106  A    between atoms: _255  and  _258
REMARK  107  A    between atoms: _258  and  _259
REMARK  108  A    between atoms: _262  and  _264
REMARK  109  A    between atoms: _264  and  _265
REMARK  110  A    between atoms: _264  and  _267
REMARK  111  A    between atoms: _267  and  _268
REMARK  112  A    between atoms: _273  and  _275
REMARK  113  A    between atoms: _275  and  _276
REMARK  114  A    between atoms: _275  and  _278
REMARK  115  A    between atoms: _278  and  _279
REMARK  116  A    between atoms: _284  and  _286
REMARK  117  A    between atoms: _286  and  _287
REMARK  118  A    between atoms: _289  and  _291
REMARK  119  A    between atoms: _291  and  _292
REMARK  120  A    between atoms: _291  and  _294
REMARK  121  A    between atoms: _294  and  _295
REMARK  122  A    between atoms: _298  and  _300
REMARK  123  A    between atoms: _300  and  _301
REMARK  124  A    between atoms: _300  and  _303
REMARK  125  A    between atoms: _303  and  _304
REMARK  126  A    between atoms: _307  and  _309
REMARK  127  A    between atoms: _309  and  _310
REMARK  128  A    between atoms: _312  and  _314
REMARK  129  A    between atoms: _314  and  _315
REMARK  130  A    between atoms: _314  and  _317
REMARK  131  A    between atoms: _317  and  _318
REMARK  132  A    between atoms: _321  and  _323
REMARK  133  A    between atoms: _323  and  _324
REMARK  134  A    between atoms: _327  and  _329
REMARK  135  A    between atoms: _329  and  _330
REMARK  136  A    between atoms: _329  and  _332
REMARK  137  A    between atoms: _332  and  _333
REMARK  138  A    between atoms: _336  and  _338
REMARK  139  A    between atoms: _338  and  _339
REMARK  140  A    between atoms: _338  and  _341
REMARK  141  A    between atoms: _341  and  _342
REMARK  142  A    between atoms: _342  and  _343
REMARK  143  A    between atoms: _348  and  _350
REMARK  144  A    between atoms: _350  and  _351
REMARK  145  A    between atoms: _350  and  _353
REMARK  146  A    between atoms: _353  and  _354
REMARK  147  A    between atoms: _360  and  _362
REMARK  148  A    between atoms: _362  and  _363
REMARK  149  A    between atoms: _362  and  _365
REMARK  150  A    between atoms: _365  and  _366
REMARK  151  A    between atoms: _376  and  _378
REMARK  152  A    between atoms: _378  and  _379
REMARK  153  A    between atoms: _378  and  _381
REMARK  154  A    between atoms: _381  and  _382
REMARK  155  A    between atoms: _385  and  _387
REMARK  156  A    between atoms: _387  and  _388
REMARK  157  A    between atoms: _391  and  _393
REMARK  158  A    between atoms: _393  and  _394
REMARK  159  A    between atoms: _393  and  _396
REMARK  160  A    between atoms: _396  and  _397
REMARK  161  A    between atoms: _400  and  _402
REMARK  162  A    between atoms: _402  and  _403
REMARK  163  A    between atoms: _402  and  _405
REMARK  164  A    between atoms: _405  and  _406
REMARK  165  A    between atoms: _409  and  _411
REMARK  166  A    between atoms: _411  and  _412
REMARK  167  A    between atoms: _414  and  _416
REMARK  168  A    between atoms: _416  and  _417
REMARK  169  A    between atoms: _416  and  _419
REMARK  170  A    between atoms: _419  and  _420
REMARK  171  A    between atoms: _423  and  _425
REMARK  172  A    between atoms: _425  and  _426
REMARK  173  A    between atoms: _425  and  _428
REMARK  174  A    between atoms: _428  and  _429
REMARK  175  A    between atoms: _432  and  _434
REMARK  176  A    between atoms: _434  and  _435
REMARK  177  A    between atoms: _434  and  _437
REMARK  178  A    between atoms: _437  and  _438
REMARK  179  A    between atoms: _441  and  _443
REMARK  180  A    between atoms: _443  and  _444
REMARK  181  A    between atoms: _443  and  _446
REMARK  182  A    between atoms: _446  and  _447
REMARK  183  A    between atoms: _450  and  _452
REMARK  184  A    between atoms: _452  and  _453
REMARK  185  A    between atoms: _452  and  _455
REMARK  186  A    between atoms: _455  and  _456
REMARK  187  A    between atoms: _459  and  _461
REMARK  188  A    between atoms: _461  and  _462
REMARK  189  A    between atoms: _465  and  _467
REMARK  190  A    between atoms: _467  and  _468
REMARK  191  A    between atoms: _470  and  _472
REMARK  192  A    between atoms: _472  and  _473
REMARK  193  A    between atoms: _475  and  _477
REMARK  194  A    between atoms: _477  and  _478
REMARK  195  A    between atoms: _477  and  _480
REMARK  196  A    between atoms: _480  and  _481
REMARK  197  A    between atoms: _486  and  _487
REMARK  198  A    between atoms: _490  and  _491
REMARK  199  A    between atoms: _496  and  _498
REMARK  200  A    between atoms: _498  and  _499
REMARK  201  A    between atoms: _498  and  _501
REMARK  202  A    between atoms: _501  and  _502
REMARK  203  A    between atoms: _504  and  _506
REMARK  204  A    between atoms: _506  and  _507
REMARK  205  A    between atoms: _506  and  _509
REMARK  206  A    between atoms: _509  and  _510
REMARK  207  A    between atoms: _513  and  _515
REMARK  208  A    between atoms: _515  and  _516
REMARK  209  A    between atoms: _518  and  _520
REMARK  210  A    between atoms: _520  and  _521
REMARK  211  A    between atoms: _520  and  _523
REMARK  212  A    between atoms: _523  and  _524
REMARK  213  A    between atoms: _524  and  _525
REMARK  214  A    between atoms: _530  and  _532
REMARK  215  A    between atoms: _532  and  _533
REMARK  216  A    between atoms: _532  and  _535
REMARK  217  A    between atoms: _535  and  _536
REMARK  218  A    between atoms: _538  and  _540
REMARK  219  A    between atoms: _540  and  _541
REMARK  220  A    between atoms: _540  and  _543
REMARK  221  A    between atoms: _543  and  _544
REMARK  222  A    between atoms: _549  and  _551
REMARK  223  A    between atoms: _551  and  _552
REMARK  224  A    between atoms: _551  and  _554
REMARK  225  A    between atoms: _554  and  _555
REMARK  226  A    between atoms: _557  and  _559
REMARK  227  A    between atoms: _559  and  _560
REMARK  228  A    between atoms: _559  and  _562
REMARK  229  A    between atoms: _562  and  _563
REMARK  230  A    between atoms: _566  and  _568
REMARK  231  A    between atoms: _568  and  _569
REMARK  232  A    between atoms: _568  and  _571
REMARK  233  A    between atoms: _571  and  _572
REMARK  234  A    between atoms: _578  and  _580
REMARK  235  A    between atoms: _580  and  _581
REMARK  236  A    between atoms: _580  and  _583
REMARK  237  A    between atoms: _583  and  _584
REMARK  238  A    between atoms: _586  and  _588
REMARK  239  A    between atoms: _588  and  _589
REMARK  240  A    between atoms: _588  and  _591
REMARK  241  A    between atoms: _591  and  _592
REMARK  242  A    between atoms: _595  and  _597
REMARK  243  A    between atoms: _597  and  _598
REMARK  244  A    between atoms: _597  and  _600
REMARK  245  A    between atoms: _600  and  _601
REMARK  246  A    between atoms: _607  and  _609
REMARK  247  A    between atoms: _609  and  _610
REMARK  248  A    between atoms: _612  and  _614
REMARK  249  A    between atoms: _614  and  _615
REMARK  250  A    between atoms: _614  and  _617
REMARK  251  A    between atoms: _617  and  _618
REMARK                            x       y       z     vdW  Elec       q    Type
REMARK                         _______ _______ _______ _____ _____    ______ ____
ROOT
ATOM      1  C   TYR A   3      24.355   7.822  25.807  0.00  0.00    +0.241 C 
ATOM      2  O   TYR A   3      24.275   6.894  26.606  0.00  0.00    -0.273 OA
ATOM      3  N   GLY A   4      23.335   8.600  25.526  0.00  0.00    -0.295 N 
ATOM      4  H   GLY A   4      23.439   9.284  24.750  0.00  0.00    +0.150 HD
ENDROOT
BRANCH   3   5
ATOM      5  CA  GLY A   4      22.070   8.560  26.237  0.00  0.00    +0.176 C 
BRANCH   5   6
ATOM      6  C   GLY A   4      21.390   7.217  26.250  0.00  0.00    +0.243 C 
ATOM      7  O   GLY A   4      20.774   6.855  27.250  0.00  0.00    -0.273 OA
ATOM      8  N   ASP A   5      21.465   6.477  25.172  0.00  0.00    -0.296 N 
ATOM      9  H   ASP A   5      21.988   6.855  24.356  0.00  0.00    +0.150 HD
BRANCH   8  10
ATOM     10  CA  ASP A   5      20.858   5.151  25.045  0.00  0.00    +0.160 C 
BRANCH  10  11
ATOM     11  C   ASP A   5      21.746   4.062  25.627  0.00  0.00    +0.241 C 
ATOM     12  N   GLY A   6      22.831   4.397  26.312  0.00  0.00    -0.295 N 
ATOM     13  H   GLY A   6      23.107   5.396  26.394  0.00  0.00    +0.150 HD
ATOM     14  O   ASP A   5      21.451   2.893  25.436  0.00  0.00    -0.273 OA
BRANCH  12  15
ATOM     15  CA  GLY A   6      23.635   3.366  26.948  0.00  0.00    +0.176 C 
BRANCH  15  16
ATOM     16  C   GLY A   6      24.769   2.874  26.121  0.00  0.00    +0.243 C 
ATOM     17  O   GLY A   6      25.625   2.099  26.586  0.00  0.00    -0.273 OA
ATOM     18  N   SER A   7      24.879   3.274  24.871  0.00  0.00    -0.295 N 
ATOM     19  H   SER A   7      24.154   3.915  24.489  0.00  0.00    +0.150 HD
BRANCH  18  20
ATOM     20  CA  SER A   7      25.970   2.860  23.999  0.00  0.00    +0.178 C 
BRANCH  20  21
ATOM     21  C   SER A   7      27.231   3.603  24.398  0.00  0.00    +0.243 C 
ATOM     22  O   SER A   7      27.203   4.636  25.077  0.00  0.00    -0.273 OA
ATOM     23  N   SER A   8      28.368   3.083  23.963  0.00  0.00    -0.296 N 
ATOM     24  H   SER A   8      28.332   2.237  23.359  0.00  0.00    +0.150 HD
BRANCH  23  25
ATOM     25  CA  SER A   8      29.680   3.654  24.301  0.00  0.00    +0.166 C 
BRANCH  25  26
ATOM     26  C   SER A   8      30.719   3.181  23.298  0.00  0.00    +0.229 C 
ATOM     27  O   SER A   8      30.531   2.240  22.560  0.00  0.00    -0.286 OA
ENDBRANCH  25  26
BRANCH  25  28
ATOM     28  CB  SER A   8      30.064   3.250  25.724  0.00  0.00    +0.165 C 
BRANCH  28  29
ATOM     29  OG  SER A   8      30.206   1.841  25.810  0.00  0.00    -0.380 OA
ATOM     30  H   SER A   8      29.348   1.409  25.569  0.00  0.00    +0.211 HD
ENDBRANCH  28  29
ENDBRANCH  25  28
ENDBRANCH  23  25
ENDBRANCH  20  21
BRANCH  20  31
ATOM     31  CB  SER A   7      25.543   3.046  22.531  0.00  0.00    +0.166 C 
BRANCH  31  32
ATOM     32  OG  SER A   7      25.403   4.439  22.287  0.00  0.00    -0.380 OA
ATOM     33  H   SER A   7      24.715   4.812  22.893  0.00  0.00    +0.211 HD
ENDBRANCH  31  32
ENDBRANCH  20  31
ENDBRANCH  18  20
ENDBRANCH  15  16
ENDBRANCH  12  15
ENDBRANCH  10  11
BRANCH  10  34
ATOM     34  CB  ASP A   5      20.517   4.799  23.598  0.00  0.00    +0.143 C 
BRANCH  34  35
ATOM     35  CG  ASP A   5      21.687   4.855  22.663  0.00  0.00    +0.367 C 
ATOM     36  OD2 ASP A   5      22.856   4.789  23.166  0.00  0.00    -0.246 OA
ATOM     37  OD1 ASP A   5      21.432   5.012  21.452  0.00  0.00    -0.246 OA
ENDBRANCH  34  35
ENDBRANCH  10  34
ENDBRANCH   8  10
ENDBRANCH   5   6
ENDBRANCH   3   5
BRANCH   1  38
ATOM     38  CA  TYR A   3      25.641   8.140  25.052  0.00  0.00    +0.153 C 
BRANCH  38  41
ATOM     39  C   SER A   2      27.765   8.133  26.177  0.00  0.00    +0.243 C 
ATOM     40  O   SER A   2      27.733   9.346  26.387  0.00  0.00    -0.273 OA
ATOM     41  N   TYR A   3      26.807   7.455  25.585  0.00  0.00    -0.297 N 
ATOM     42  H   TYR A   3      26.884   6.422  25.497  0.00  0.00    +0.150 HD
BRANCH  39  43
ATOM     43  CA  SER A   2      28.983   7.306  26.607  0.00  0.00    +0.178 C 
BRANCH  43  45
ATOM     44  C   ILE A   1      31.168   7.423  25.542  0.00  0.00    +0.238 C 
ATOM     45  N   SER A   2      30.172   8.005  26.193  0.00  0.00    -0.295 N 
ATOM     46  H   SER A   2      30.253   9.018  26.416  0.00  0.00    +0.150 HD
ATOM     47  O   ILE A   1      31.202   6.214  25.244  0.00  0.00    -0.274 OA
BRANCH  44  48
ATOM     48  CA  ILE A   1      32.318   8.355  25.205  0.00  0.00    +0.145 C 
BRANCH  48  49
ATOM     49  N   ILE A   1      33.577   7.632  25.261  0.00  0.00    -0.238 NA
ATOM     50  H   ILE A   1      33.672   6.733  24.747  0.00  0.00    +0.142 HD
ENDBRANCH  48  49
BRANCH  48  51
ATOM     51  CB  ILE A   1      32.133   8.976  23.803  0.00  0.00    +0.025 C 
ATOM     52  CG2 ILE A   1      31.966   7.897  22.749  0.00  0.00    +0.002 C 
BRANCH  51  53
ATOM     53  CG1 ILE A   1      30.987   9.994  23.746  0.00  0.00    +0.002 C 
ATOM     54  CD1 ILE A   1      31.105  10.990  22.601  0.00  0.00    +0.000 C 
ENDBRANCH  51  53
ENDBRANCH  48  51
ENDBRANCH  44  48
ENDBRANCH  43  45
BRANCH  43  55
ATOM     55  CB  SER A   2      28.992   7.075  28.114  0.00  0.00    +0.166 C 
BRANCH  55  56
ATOM     56  OG  SER A   2      30.152   6.358  28.551  0.00  0.00    -0.380 OA
ATOM     57  H   SER A   2      30.965   6.872  28.316  0.00  0.00    +0.211 HD
ENDBRANCH  55  56
ENDBRANCH  43  55
ENDBRANCH  39  43
ENDBRANCH  38  41
BRANCH  38  58
ATOM     58  CB  TYR A   3      25.485   7.744  23.587  0.00  0.00    +0.055 C 
BRANCH  58  59
ATOM     59  CG  TYR A   3      26.615   8.089  22.669  0.00  0.00    -0.020 A 
ATOM     60  CD2 TYR A   3      26.825   9.382  22.239  0.00  0.00    -0.001 A 
ATOM     61  CE2 TYR A   3      27.861   9.698  21.407  0.00  0.00    +0.036 A 
ATOM     62  CZ  TYR A   3      28.726   8.699  20.983  0.00  0.00    +0.134 A 
ATOM     63  CE1 TYR A   3      28.535   7.402  21.396  0.00  0.00    +0.036 A 
ATOM     64  CD1 TYR A   3      27.495   7.098  22.235  0.00  0.00    -0.001 A 
BRANCH  62  65
ATOM     65  OH  TYR A   3      29.766   8.970  20.135  0.00  0.00    -0.506 OA
ATOM     66  HH  TYR A   3      29.777   9.938  19.927  0.00  0.00    +0.292 HD
ENDBRANCH  62  65
ENDBRANCH  58  59
ENDBRANCH  38  58
ENDBRANCH   1  38
TORSDOF 29
REMARK  Name = ../refined-set-2016/1bxq/1bxq_pocket.pdb
REMARK  251 active torsions:
REMARK  status: ('A' for Active; 'I' for Inactive)
REMARK    1  A    between atoms: _1  and  _3
REMARK    2  A    between atoms: _3  and  _4
REMARK    3  A    between atoms: _3  and  _6
REMARK    4  A    between atoms: _6  and  _7
REMARK    5  A    between atoms: _10  and  _12
REMARK    6  A    between atoms: _12  and  _13
REMARK    7  A    between atoms: _16  and  _18
REMARK    8  A    between atoms: _18  and  _19
REMARK    9  A    between atoms: _18  and  _21
REMARK   10  A    between atoms: _21  and  _22
REMARK   11  A    between atoms: _27  and  _29
REMARK   12  A    between atoms: _29  and  _30
REMARK   13  A    between atoms: _29  and  _32
REMARK   14  A    between atoms: _32  and  _33
REMARK   15  A    between atoms: _36  and  _38
REMARK   16  A    between atoms: _38  and  _39
REMARK   17  A    between atoms: _38  and  _41
REMARK   18  A    between atoms: _41  and  _42
REMARK   19  A    between atoms: _42  and  _43
REMARK   20  A    between atoms: _46  and  _48
REMARK   21  A    between atoms: _48  and  _49
REMARK   22  A    between atoms: _48  and  _51
REMARK   23  A    between atoms: _51  and  _52
REMARK   24  A    between atoms: _52  and  _53
REMARK   25  A    between atoms: _56  and  _58
REMARK   26  A    between atoms: _58  and  _59
REMARK   27  A    between atoms: _58  and  _61
REMARK   28  A    between atoms: _61  and  _62
REMARK   29  A    between atoms: _67  and  _68
REMARK   30  A    between atoms: _70  and  _72
REMARK   31  A    between atoms: _72  and  _73
REMARK   32  A    between atoms: _72  and  _75
REMARK   33  A    between atoms: _75  and  _76
REMARK   34  A    between atoms: _81  and  _83
REMARK   35  A    between atoms: _83  and  _84
REMARK   36  A    between atoms: _83  and  _86
REMARK   37  A    between atoms: _86  and  _87
REMARK   38  A    between atoms: _93  and  _95
REMARK   39  A    between atoms: _95  and  _96
REMARK   40  A    between atoms: _95  and  _98
REMARK   41  A    between atoms: _98  and  _99
REMARK   42  A    between atoms: _102  and  _104
REMARK   43  A    between atoms: _104  and  _105
REMARK   44  A    between atoms: _104  and  _107
REMARK   45  A    between atoms: _107  and  _108
REMARK   46  A    between atoms: _111  and  _113
REMARK   47  A    between atoms: _113  and  _114
REMARK   48  A    between atoms: _116  and  _118
REMARK   49  A    between atoms: _118  and  _119
REMARK   50  A    between atoms: _118  and  _121
REMARK   51  A    between atoms: _121  and  _122
REMARK   52  A    between atoms: _124  and  _126
REMARK   53  A    between atoms: _126  and  _127
REMARK   54  A    between atoms: _130  and  _132
REMARK   55  A    between atoms: _132  and  _133
REMARK   56  A    between atoms: _132  and  _135
REMARK   57  A    between atoms: _135  and  _136
REMARK   58  A    between atoms: _139  and  _141
REMARK   59  A    between atoms: _141  and  _142
REMARK   60  A    between atoms: _141  and  _144
REMARK   61  A    between atoms: _144  and  _145
REMARK   62  A    between atoms: _155  and  _157
REMARK   63  A    between atoms: _157  and  _158
REMARK   64  A    between atoms: _157  and  _160
REMARK   65  A    between atoms: _160  and  _161
REMARK   66  A    between atoms: _164  and  _166
REMARK   67  A    between atoms: _166  and  _167
REMARK   68  A    between atoms: _166  and  _169
REMARK   69  A    between atoms: _169  and  _170
REMARK   70  A    between atoms: _172  and  _174
REMARK   71  A    between atoms: _174  and  _175
REMARK   72  A    between atoms: _174  and  _177
REMARK   73  A    between atoms: _177  and  _178
REMARK   74  A    between atoms: _183  and  _184
REMARK   75  A    between atoms: _186  and  _188
REMARK   76  A    between atoms: _188  and  _189
REMARK   77  A    between atoms: _191  and  _193
REMARK   78  A    between atoms: _193  and  _194
REMARK   79  A    between atoms: _193  and  _196
REMARK   80  A    between atoms: _196  and  _197
REMARK   81  A    between atoms: _200  and  _202
REMARK   82  A    between atoms: _202  and  _203
REMARK   83  A    between atoms: _205  and  _207
REMARK   84  A    between atoms: _207  and  _208
REMARK   85  A    between atoms: _207  and  _210
REMARK   86  A    between atoms: _210  and  _211
REMARK   87  A    between atoms: _213  and  _215
REMARK   88  A    between atoms: _215  and  _216
REMARK   89  A    between atoms: _215  and  _218
REMARK   90  A    between atoms: _218  and  _219
REMARK   91  A    between atoms: _221  and  _223
REMARK   92  A    between atoms: _223  and  _224
REMARK   93  A    between atoms: _223  and  _226
REMARK   94  A    between atoms: _226  and  _227
REMARK   95  A    between atoms: _229  and  _231
REMARK   96  A    between atoms: _231  and  _232
REMARK   97  A    between atoms: _231  and  _234
REMARK   98  A    between atoms: _234  and  _235
REMARK   99  A    between atoms: _235  and  _236
REMARK  100  A    between atoms: _241  and  _243
REMARK  101  A    between atoms: _243  and  _244
REMARK  102  A    between atoms: _243  and  _246
REMARK  103  A    between atoms: _246  and  _247
REMARK  104  A    between atoms: _253  and  _255
REMARK  105  A    between atoms: _255  and  _256
REMARK  106  A    between atoms: _255  and  _258
REMARK  107  A    between atoms: _258  and  _259
REMARK  108  A    between atoms: _262  and  _264
REMARK  109  A    between atoms: _264  and  _265
REMARK  110  A    between atoms: _264  and  _267
REMARK  111  A    between atoms: _267  and  _268
REMARK  112  A    between atoms: _273  and  _275
REMARK  113  A    between atoms: _275  and  _276
REMARK  114  A    between atoms: _275  and  _278
REMARK  115  A    between atoms: _278  and  _279
REMARK  116  A    between atoms: _284  and  _286
REMARK  117  A    between atoms: _286  and  _287
REMARK  118  A    between atoms: _289  and  _291
REMARK  119  A    between atoms: _291  and  _292
REMARK  120  A    between atoms: _291  and  _294
REMARK  121  A    between atoms: _294  and  _295
REMARK  122  A    between atoms: _298  and  _300
REMARK  123  A    between atoms: _300  and  _301
REMARK  124  A    between atoms: _300  and  _303
REMARK  125  A    between atoms: _303  and  _304
REMARK  126  A    between atoms: _307  and  _309
REMARK  127  A    between atoms: _309  and  _310
REMARK  128  A    between atoms: _312  and  _314
REMARK  129  A    between atoms: _314  and  _315
REMARK  130  A    between atoms: _314  and  _317
REMARK  131  A    between atoms: _317  and  _318
REMARK  132  A    between atoms: _321  and  _323
REMARK  133  A    between atoms: _323  and  _324
REMARK  134  A    between atoms: _327  and  _329
REMARK  135  A    between atoms: _329  and  _330
REMARK  136  A    between atoms: _329  and  _332
REMARK  137  A    between atoms: _332  and  _333
REMARK  138  A    between atoms: _336  and  _338
REMARK  139  A    between atoms: _338  and  _339
REMARK  140  A    between atoms: _338  and  _341
REMARK  141  A    between atoms: _341  and  _342
REMARK  142  A    between atoms: _342  and  _343
REMARK  143  A    between atoms: _348  and  _350
REMARK  144  A    between atoms: _350  and  _351
REMARK  145  A    between atoms: _350  and  _353
REMARK  146  A    between atoms: _353  and  _354
REMARK  147  A    between atoms: _360  and  _362
REMARK  148  A    between atoms: _362  and  _363
REMARK  149  A    between atoms: _362  and  _365
REMARK  150  A    between atoms: _365  and  _366
REMARK  151  A    between atoms: _376  and  _378
REMARK  152  A    between atoms: _378  and  _379
REMARK  153  A    between atoms: _378  and  _381
REMARK  154  A    between atoms: _381  and  _382
REMARK  155  A    between atoms: _385  and  _387
REMARK  156  A    between atoms: _387  and  _388
REMARK  157  A    between atoms: _391  and  _393
REMARK  158  A    between atoms: _393  and  _394
REMARK  159  A    between atoms: _393  and  _396
REMARK  160  A    between atoms: _396  and  _397
REMARK  161  A    between atoms: _400  and  _402
REMARK  162  A    between atoms: _402  and  _403
REMARK  163  A    between atoms: _402  and  _405
REMARK  164  A    between atoms: _405  and  _406
REMARK  165  A    between atoms: _409  and  _411
REMARK  166  A    between atoms: _411  and  _412
REMARK  167  A    between atoms: _414  and  _416
REMARK  168  A    between atoms: _416  and  _417
REMARK  169  A    between atoms: _416  and  _419
REMARK  170  A    between atoms: _419  and  _420
REMARK  171  A    between atoms: _423  and  _425
REMARK  172  A    between atoms: _425  and  _426
REMARK  173  A    between atoms: _425  and  _428
REMARK  174  A    between atoms: _428  and  _429
REMARK  175  A    between atoms: _432  and  _434
REMARK  176  A    between atoms: _434  and  _435
REMARK  177  A    between atoms: _434  and  _437
REMARK  178  A    between atoms: _437  and  _438
REMARK  179  A    between atoms: _441  and  _443
REMARK  180  A    between atoms: _443  and  _444
REMARK  181  A    between atoms: _443  and  _446
REMARK  182  A    between atoms: _446  and  _447
REMARK  183  A    between atoms: _450  and  _452
REMARK  184  A    between atoms: _452  and  _453
REMARK  185  A    between atoms: _452  and  _455
REMARK  186  A    between atoms: _455  and  _456
REMARK  187  A    between atoms: _459  and  _461
REMARK  188  A    between atoms: _461  and  _462
REMARK  189  A    between atoms: _465  and  _467
REMARK  190  A    between atoms: _467  and  _468
REMARK  191  A    between atoms: _470  and  _472
REMARK  192  A    between atoms: _472  and  _473
REMARK  193  A    between atoms: _475  and  _477
REMARK  194  A    between atoms: _477  and  _478
REMARK  195  A    between atoms: _477  and  _480
REMARK  196  A    between atoms: _480  and  _481
REMARK  197  A    between atoms: _486  and  _487
REMARK  198  A    between atoms: _490  and  _491
REMARK  199  A    between atoms: _496  and  _498
REMARK  200  A    between atoms: _498  and  _499
REMARK  201  A    between atoms: _498  and  _501
REMARK  202  A    between atoms: _501  and  _502
REMARK  203  A    between atoms: _504  and  _506
REMARK  204  A    between atoms: _506  and  _507
REMARK  205  A    between atoms: _506  and  _509
REMARK  206  A    between atoms: _509  and  _510
REMARK  207  A    between atoms: _513  and  _515
REMARK  208  A    between atoms: _515  and  _516
REMARK  209  A    between atoms: _518  and  _520
REMARK  210  A    between atoms: _520  and  _521
REMARK  211  A    between atoms: _520  and  _523
REMARK  212  A    between atoms: _523  and  _524
REMARK  213  A    between atoms: _524  and  _525
REMARK  214  A    between atoms: _530  and  _532
REMARK  215  A    between atoms: _532  and  _533
REMARK  216  A    between atoms: _532  and  _535
REMARK  217  A    between atoms: _535  and  _536
REMARK  218  A    between atoms: _538  and  _540
REMARK  219  A    between atoms: _540  and  _541
REMARK  220  A    between atoms: _540  and  _543
REMARK  221  A    between atoms: _543  and  _544
REMARK  222  A    between atoms: _549  and  _551
REMARK  223  A    between atoms: _551  and  _552
REMARK  224  A    between atoms: _551  and  _554
REMARK  225  A    between atoms: _554  and  _555
REMARK  226  A    between atoms: _557  and  _559
REMARK  227  A    between atoms: _559  and  _560
REMARK  228  A    between atoms: _559  and  _562
REMARK  229  A    between atoms: _562  and  _563
REMARK  230  A    between atoms: _566  and  _568
REMARK  231  A    between atoms: _568  and  _569
REMARK  232  A    between atoms: _568  and  _571
REMARK  233  A    between atoms: _571  and  _572
REMARK  234  A    between atoms: _578  and  _580
REMARK  235  A    between atoms: _580  and  _581
REMARK  236  A    between atoms: _580  and  _583
REMARK  237  A    between atoms: _583  and  _584
REMARK  238  A    between atoms: _586  and  _588
REMARK  239  A    between atoms: _588  and  _589
REMARK  240  A    between atoms: _588  and  _591
REMARK  241  A    between atoms: _591  and  _592
REMARK  242  A    between atoms: _595  and  _597
REMARK  243  A    between atoms: _597  and  _598
REMARK  244  A    between atoms: _597  and  _600
REMARK  245  A    between atoms: _600  and  _601
REMARK  246  A    between atoms: _607  and  _609
REMARK  247  A    between atoms: _609  and  _610
REMARK  248  A    between atoms: _612  and  _614
REMARK  249  A    between atoms: _614  and  _615
REMARK  250  A    between atoms: _614  and  _617
REMARK  251  A    between atoms: _617  and  _618
REMARK                            x       y       z     vdW  Elec       q    Type
REMARK                         _______ _______ _______ _____ _____    ______ ____
ROOT
ATOM      1  CA  SER A   1      29.479  -1.424  22.778  0.00  0.00    +0.163 C 
ENDROOT
BRANCH   1   2
ATOM      2  N   SER A   1      30.513  -0.689  22.067  0.00  0.00    -0.237 NA
ATOM      3  H   SER A   1      30.407   0.338  21.943  0.00  0.00    +0.142 HD
ENDBRANCH   1   2
BRANCH   1   4
ATOM      4  C   SER A   1      28.603  -2.196  21.803  0.00  0.00    +0.227 C 
ATOM      5  O   SER A   1      28.710  -2.030  20.601  0.00  0.00    -0.287 OA
ENDBRANCH   1   4
BRANCH   1   6
ATOM      6  CB  SER A   1      28.666  -0.447  23.614  0.00  0.00    +0.162 C 
BRANCH   6   7
ATOM      7  OG  SER A   1      27.868   0.411  22.798  0.00  0.00    -0.380 OA
ATOM      8  H   SER A   1      27.242  -0.136  22.260  0.00  0.00    +0.211 HD
ENDBRANCH   6   7
ENDBRANCH   1   6
TORSDOF 4
REMARK  Name = ../refined-set-2016/1bxq/1bxq_pocket.pdb
REMARK  251 active torsions:
REMARK  status: ('A' for Active; 'I' for Inactive)
REMARK    1  A    between atoms: _1  and  _3
REMARK    2  A    between atoms: _3  and  _4
REMARK    3  A    between atoms: _3  and  _6
REMARK    4  A    between atoms: _6  and  _7
REMARK    5  A    between atoms: _10  and  _12
REMARK    6  A    between atoms: _12  and  _13
REMARK    7  A    between atoms: _16  and  _18
REMARK    8  A    between atoms: _18  and  _19
REMARK    9  A    between atoms: _18  and  _21
REMARK   10  A    between atoms: _21  and  _22
REMARK   11  A    between atoms: _27  and  _29
REMARK   12  A    between atoms: _29  and  _30
REMARK   13  A    between atoms: _29  and  _32
REMARK   14  A    between atoms: _32  and  _33
REMARK   15  A    between atoms: _36  and  _38
REMARK   16  A    between atoms: _38  and  _39
REMARK   17  A    between atoms: _38  and  _41
REMARK   18  A    between atoms: _41  and  _42
REMARK   19  A    between atoms: _42  and  _43
REMARK   20  A    between atoms: _46  and  _48
REMARK   21  A    between atoms: _48  and  _49
REMARK   22  A    between atoms: _48  and  _51
REMARK   23  A    between atoms: _51  and  _52
REMARK   24  A    between atoms: _52  and  _53
REMARK   25  A    between atoms: _56  and  _58
REMARK   26  A    between atoms: _58  and  _59
REMARK   27  A    between atoms: _58  and  _61
REMARK   28  A    between atoms: _61  and  _62
REMARK   29  A    between atoms: _67  and  _68
REMARK   30  A    between atoms: _70  and  _72
REMARK   31  A    between atoms: _72  and  _73
REMARK   32  A    between atoms: _72  and  _75
REMARK   33  A    between atoms: _75  and  _76
REMARK   34  A    between atoms: _81  and  _83
REMARK   35  A    between atoms: _83  and  _84
REMARK   36  A    between atoms: _83  and  _86
REMARK   37  A    between atoms: _86  and  _87
REMARK   38  A    between atoms: _93  and  _95
REMARK   39  A    between atoms: _95  and  _96
REMARK   40  A    between atoms: _95  and  _98
REMARK   41  A    between atoms: _98  and  _99
REMARK   42  A    between atoms: _102  and  _104
REMARK   43  A    between atoms: _104  and  _105
REMARK   44  A    between atoms: _104  and  _107
REMARK   45  A    between atoms: _107  and  _108
REMARK   46  A    between atoms: _111  and  _113
REMARK   47  A    between atoms: _113  and  _114
REMARK   48  A    between atoms: _116  and  _118
REMARK   49  A    between atoms: _118  and  _119
REMARK   50  A    between atoms: _118  and  _121
REMARK   51  A    between atoms: _121  and  _122
REMARK   52  A    between atoms: _124  and  _126
REMARK   53  A    between atoms: _126  and  _127
REMARK   54  A    between atoms: _130  and  _132
REMARK   55  A    between atoms: _132  and  _133
REMARK   56  A    between atoms: _132  and  _135
REMARK   57  A    between atoms: _135  and  _136
REMARK   58  A    between atoms: _139  and  _141
REMARK   59  A    between atoms: _141  and  _142
REMARK   60  A    between atoms: _141  and  _144
REMARK   61  A    between atoms: _144  and  _145
REMARK   62  A    between atoms: _155  and  _157
REMARK   63  A    between atoms: _157  and  _158
REMARK   64  A    between atoms: _157  and  _160
REMARK   65  A    between atoms: _160  and  _161
REMARK   66  A    between atoms: _164  and  _166
REMARK   67  A    between atoms: _166  and  _167
REMARK   68  A    between atoms: _166  and  _169
REMARK   69  A    between atoms: _169  and  _170
REMARK   70  A    between atoms: _172  and  _174
REMARK   71  A    between atoms: _174  and  _175
REMARK   72  A    between atoms: _174  and  _177
REMARK   73  A    between atoms: _177  and  _178
REMARK   74  A    between atoms: _183  and  _184
REMARK   75  A    between atoms: _186  and  _188
REMARK   76  A    between atoms: _188  and  _189
REMARK   77  A    between atoms: _191  and  _193
REMARK   78  A    between atoms: _193  and  _194
REMARK   79  A    between atoms: _193  and  _196
REMARK   80  A    between atoms: _196  and  _197
REMARK   81  A    between atoms: _200  and  _202
REMARK   82  A    between atoms: _202  and  _203
REMARK   83  A    between atoms: _205  and  _207
REMARK   84  A    between atoms: _207  and  _208
REMARK   85  A    between atoms: _207  and  _210
REMARK   86  A    between atoms: _210  and  _211
REMARK   87  A    between atoms: _213  and  _215
REMARK   88  A    between atoms: _215  and  _216
REMARK   89  A    between atoms: _215  and  _218
REMARK   90  A    between atoms: _218  and  _219
REMARK   91  A    between atoms: _221  and  _223
REMARK   92  A    between atoms: _223  and  _224
REMARK   93  A    between atoms: _223  and  _226
REMARK   94  A    between atoms: _226  and  _227
REMARK   95  A    between atoms: _229  and  _231
REMARK   96  A    between atoms: _231  and  _232
REMARK   97  A    between atoms: _231  and  _234
REMARK   98  A    between atoms: _234  and  _235
REMARK   99  A    between atoms: _235  and  _236
REMARK  100  A    between atoms: _241  and  _243
REMARK  101  A    between atoms: _243  and  _244
REMARK  102  A    between atoms: _243  and  _246
REMARK  103  A    between atoms: _246  and  _247
REMARK  104  A    between atoms: _253  and  _255
REMARK  105  A    between atoms: _255  and  _256
REMARK  106  A    between atoms: _255  and  _258
REMARK  107  A    between atoms: _258  and  _259
REMARK  108  A    between atoms: _262  and  _264
REMARK  109  A    between atoms: _264  and  _265
REMARK  110  A    between atoms: _264  and  _267
REMARK  111  A    between atoms: _267  and  _268
REMARK  112  A    between atoms: _273  and  _275
REMARK  113  A    between atoms: _275  and  _276
REMARK  114  A    between atoms: _275  and  _278
REMARK  115  A    between atoms: _278  and  _279
REMARK  116  A    between atoms: _284  and  _286
REMARK  117  A    between atoms: _286  and  _287
REMARK  118  A    between atoms: _289  and  _291
REMARK  119  A    between atoms: _291  and  _292
REMARK  120  A    between atoms: _291  and  _294
REMARK  121  A    between atoms: _294  and  _295
REMARK  122  A    between atoms: _298  and  _300
REMARK  123  A    between atoms: _300  and  _301
REMARK  124  A    between atoms: _300  and  _303
REMARK  125  A    between atoms: _303  and  _304
REMARK  126  A    between atoms: _307  and  _309
REMARK  127  A    between atoms: _309  and  _310
REMARK  128  A    between atoms: _312  and  _314
REMARK  129  A    between atoms: _314  and  _315
REMARK  130  A    between atoms: _314  and  _317
REMARK  131  A    between atoms: _317  and  _318
REMARK  132  A    between atoms: _321  and  _323
REMARK  133  A    between atoms: _323  and  _324
REMARK  134  A    between atoms: _327  and  _329
REMARK  135  A    between atoms: _329  and  _330
REMARK  136  A    between atoms: _329  and  _332
REMARK  137  A    between atoms: _332  and  _333
REMARK  138  A    between atoms: _336  and  _338
REMARK  139  A    between atoms: _338  and  _339
REMARK  140  A    between atoms: _338  and  _341
REMARK  141  A    between atoms: _341  and  _342
REMARK  142  A    between atoms: _342  and  _343
REMARK  143  A    between atoms: _348  and  _350
REMARK  144  A    between atoms: _350  and  _351
REMARK  145  A    between atoms: _350  and  _353
REMARK  146  A    between atoms: _353  and  _354
REMARK  147  A    between atoms: _360  and  _362
REMARK  148  A    between atoms: _362  and  _363
REMARK  149  A    between atoms: _362  and  _365
REMARK  150  A    between atoms: _365  and  _366
REMARK  151  A    between atoms: _376  and  _378
REMARK  152  A    between atoms: _378  and  _379
REMARK  153  A    between atoms: _378  and  _381
REMARK  154  A    between atoms: _381  and  _382
REMARK  155  A    between atoms: _385  and  _387
REMARK  156  A    between atoms: _387  and  _388
REMARK  157  A    between atoms: _391  and  _393
REMARK  158  A    between atoms: _393  and  _394
REMARK  159  A    between atoms: _393  and  _396
REMARK  160  A    between atoms: _396  and  _397
REMARK  161  A    between atoms: _400  and  _402
REMARK  162  A    between atoms: _402  and  _403
REMARK  163  A    between atoms: _402  and  _405
REMARK  164  A    between atoms: _405  and  _406
REMARK  165  A    between atoms: _409  and  _411
REMARK  166  A    between atoms: _411  and  _412
REMARK  167  A    between atoms: _414  and  _416
REMARK  168  A    between atoms: _416  and  _417
REMARK  169  A    between atoms: _416  and  _419
REMARK  170  A    between atoms: _419  and  _420
REMARK  171  A    between atoms: _423  and  _425
REMARK  172  A    between atoms: _425  and  _426
REMARK  173  A    between atoms: _425  and  _428
REMARK  174  A    between atoms: _428  and  _429
REMARK  175  A    between atoms: _432  and  _434
REMARK  176  A    between atoms: _434  and  _435
REMARK  177  A    between atoms: _434  and  _437
REMARK  178  A    between atoms: _437  and  _438
REMARK  179  A    between atoms: _441  and  _443
REMARK  180  A    between atoms: _443  and  _444
REMARK  181  A    between atoms: _443  and  _446
REMARK  182  A    between atoms: _446  and  _447
REMARK  183  A    between atoms: _450  and  _452
REMARK  184  A    between atoms: _452  and  _453
REMARK  185  A    between atoms: _452  and  _455
REMARK  186  A    between atoms: _455  and  _456
REMARK  187  A    between atoms: _459  and  _461
REMARK  188  A    between atoms: _461  and  _462
REMARK  189  A    between atoms: _465  and  _467
REMARK  190  A    between atoms: _467  and  _468
REMARK  191  A    between atoms: _470  and  _472
REMARK  192  A    between atoms: _472  and  _473
REMARK  193  A    between atoms: _475  and  _477
REMARK  194  A    between atoms: _477  and  _478
REMARK  195  A    between atoms: _477  and  _480
REMARK  196  A    between atoms: _480  and  _481
REMARK  197  A    between atoms: _486  and  _487
REMARK  198  A    between atoms: _490  and  _491
REMARK  199  A    between atoms: _496  and  _498
REMARK  200  A    between atoms: _498  and  _499
REMARK  201  A    between atoms: _498  and  _501
REMARK  202  A    between atoms: _501  and  _502
REMARK  203  A    between atoms: _504  and  _506
REMARK  204  A    between atoms: _506  and  _507
REMARK  205  A    between atoms: _506  and  _509
REMARK  206  A    between atoms: _509  and  _510
REMARK  207  A    between atoms: _513  and  _515
REMARK  208  A    between atoms: _515  and  _516
REMARK  209  A    between atoms: _518  and  _520
REMARK  210  A    between atoms: _520  and  _521
REMARK  211  A    between atoms: _520  and  _523
REMARK  212  A    between atoms: _523  and  _524
REMARK  213  A    between atoms: _524  and  _525
REMARK  214  A    between atoms: _530  and  _532
REMARK  215  A    between atoms: _532  and  _533
REMARK  216  A    between atoms: _532  and  _535
REMARK  217  A    between atoms: _535  and  _536
REMARK  218  A    between atoms: _538  and  _540
REMARK  219  A    between atoms: _540  and  _541
REMARK  220  A    between atoms: _540  and  _543
REMARK  221  A    between atoms: _543  and  _544
REMARK  222  A    between atoms: _549  and  _551
REMARK  223  A    between atoms: _551  and  _552
REMARK  224  A    between atoms: _551  and  _554
REMARK  225  A    between atoms: _554  and  _555
REMARK  226  A    between atoms: _557  and  _559
REMARK  227  A    between atoms: _559  and  _560
REMARK  228  A    between atoms: _559  and  _562
REMARK  229  A    between atoms: _562  and  _563
REMARK  230  A    between atoms: _566  and  _568
REMARK  231  A    between atoms: _568  and  _569
REMARK  232  A    between atoms: _568  and  _571
REMARK  233  A    between atoms: _571  and  _572
REMARK  234  A    between atoms: _578  and  _580
REMARK  235  A    between atoms: _580  and  _581
REMARK  236  A    between atoms: _580  and  _583
REMARK  237  A    between atoms: _583  and  _584
REMARK  238  A    between atoms: _586  and  _588
REMARK  239  A    between atoms: _588  and  _589
REMARK  240  A    between atoms: _588  and  _591
REMARK  241  A    between atoms: _591  and  _592
REMARK  242  A    between atoms: _595  and  _597
REMARK  243  A    between atoms: _597  and  _598
REMARK  244  A    between atoms: _597  and  _600
REMARK  245  A    between atoms: _600  and  _601
REMARK  246  A    between atoms: _607  and  _609
REMARK  247  A    between atoms: _609  and  _610
REMARK  248  A    between atoms: _612  and  _614
REMARK  249  A    between atoms: _614  and  _615
REMARK  250  A    between atoms: _614  and  _617
REMARK  251  A    between atoms: _617  and  _618
REMARK                            x       y       z     vdW  Elec       q    Type
REMARK                         _______ _______ _______ _____ _____    ______ ____
ROOT
ATOM      1  C   GLN A   1      25.513  -0.966  18.610  0.00  0.00    +0.238 C 
ATOM      2  N   PHE A   2      26.757  -0.499  18.805  0.00  0.00    -0.298 N 
ATOM      3  H   PHE A   2      27.126  -0.327  19.762  0.00  0.00    +0.150 HD
ATOM      4  O   GLN A   1      25.021  -1.146  17.501  0.00  0.00    -0.274 OA
ENDROOT
BRANCH   1   5
ATOM      5  CA  GLN A   1      24.741  -1.289  19.872  0.00  0.00    +0.145 C 
BRANCH   5   6
ATOM      6  N   GLN A   1      25.560  -1.973  20.861  0.00  0.00    -0.238 NA
ATOM      7  H   GLN A   1      25.739  -1.534  21.787  0.00  0.00    +0.142 HD
ENDBRANCH   5   6
BRANCH   5   8
ATOM      8  CB  GLN A   1      24.178  -0.027  20.522  0.00  0.00    +0.036 C 
BRANCH   8   9
ATOM      9  CG  GLN A   1      23.382   0.846  19.571  0.00  0.00    +0.087 C 
BRANCH   9  10
ATOM     10  CD  GLN A   1      22.745   2.040  20.260  0.00  0.00    +0.219 C 
ATOM     11  NE2 GLN A   1      21.994   1.717  21.316  0.00  0.00    -0.329 N 
ATOM     12 HE21 GLN A   1      21.522   2.463  21.866  0.00  0.00    +0.145 HD
ATOM     13 HE22 GLN A   1      21.881   0.720  21.588  0.00  0.00    +0.145 HD
ATOM     14  OE1 GLN A   1      22.936   3.201  19.863  0.00  0.00    -0.275 OA
ENDBRANCH   9  10
ENDBRANCH   8   9
ENDBRANCH   5   8
ENDBRANCH   1   5
BRANCH   2  15
ATOM     15  CA  PHE A   2      27.570  -0.242  17.622  0.00  0.00    +0.141 C 
BRANCH  15  16
ATOM     16  C   PHE A   2      28.053  -1.540  16.954  0.00  0.00    +0.227 C 
ATOM     17  O   PHE A   2      28.153  -1.562  15.730  0.00  0.00    -0.286 OA
ENDBRANCH  15  16
BRANCH  15  18
ATOM     18  CB  PHE A   2      28.767   0.648  17.963  0.00  0.00    +0.054 C 
BRANCH  18  19
ATOM     19  CG  PHE A   2      28.323   2.020  18.459  0.00  0.00    -0.020 A 
ATOM     20  CD2 PHE A   2      28.578   2.405  19.761  0.00  0.00    -0.004 A 
ATOM     21  CE2 PHE A   2      28.163   3.642  20.215  0.00  0.00    -0.000 A 
ATOM     22  CZ  PHE A   2      27.478   4.463  19.367  0.00  0.00    -0.000 A 
ATOM     23  CE1 PHE A   2      27.227   4.103  18.072  0.00  0.00    -0.000 A 
ATOM     24  CD1 PHE A   2      27.660   2.874  17.586  0.00  0.00    -0.004 A 
ENDBRANCH  18  19
ENDBRANCH  15  18
ENDBRANCH   2  15
TORSDOF 9
REMARK  Name = ../refined-set-2016/1bxq/1bxq_pocket.pdb
REMARK  251 active torsions:
REMARK  status: ('A' for Active; 'I' for Inactive)
REMARK    1  A    between atoms: _1  and  _3
REMARK    2  A    between atoms: _3  and  _4
REMARK    3  A    between atoms: _3  and  _6
REMARK    4  A    between atoms: _6  and  _7
REMARK    5  A    between atoms: _10  and  _12
REMARK    6  A    between atoms: _12  and  _13
REMARK    7  A    between atoms: _16  and  _18
REMARK    8  A    between atoms: _18  and  _19
REMARK    9  A    between atoms: _18  and  _21
REMARK   10  A    between atoms: _21  and  _22
REMARK   11  A    between atoms: _27  and  _29
REMARK   12  A    between atoms: _29  and  _30
REMARK   13  A    between atoms: _29  and  _32
REMARK   14  A    between atoms: _32  and  _33
REMARK   15  A    between atoms: _36  and  _38
REMARK   16  A    between atoms: _38  and  _39
REMARK   17  A    between atoms: _38  and  _41
REMARK   18  A    between atoms: _41  and  _42
REMARK   19  A    between atoms: _42  and  _43
REMARK   20  A    between atoms: _46  and  _48
REMARK   21  A    between atoms: _48  and  _49
REMARK   22  A    between atoms: _48  and  _51
REMARK   23  A    between atoms: _51  and  _52
REMARK   24  A    between atoms: _52  and  _53
REMARK   25  A    between atoms: _56  and  _58
REMARK   26  A    between atoms: _58  and  _59
REMARK   27  A    between atoms: _58  and  _61
REMARK   28  A    between atoms: _61  and  _62
REMARK   29  A    between atoms: _67  and  _68
REMARK   30  A    between atoms: _70  and  _72
REMARK   31  A    between atoms: _72  and  _73
REMARK   32  A    between atoms: _72  and  _75
REMARK   33  A    between atoms: _75  and  _76
REMARK   34  A    between atoms: _81  and  _83
REMARK   35  A    between atoms: _83  and  _84
REMARK   36  A    between atoms: _83  and  _86
REMARK   37  A    between atoms: _86  and  _87
REMARK   38  A    between atoms: _93  and  _95
REMARK   39  A    between atoms: _95  and  _96
REMARK   40  A    between atoms: _95  and  _98
REMARK   41  A    between atoms: _98  and  _99
REMARK   42  A    between atoms: _102  and  _104
REMARK   43  A    between atoms: _104  and  _105
REMARK   44  A    between atoms: _104  and  _107
REMARK   45  A    between atoms: _107  and  _108
REMARK   46  A    between atoms: _111  and  _113
REMARK   47  A    between atoms: _113  and  _114
REMARK   48  A    between atoms: _116  and  _118
REMARK   49  A    between atoms: _118  and  _119
REMARK   50  A    between atoms: _118  and  _121
REMARK   51  A    between atoms: _121  and  _122
REMARK   52  A    between atoms: _124  and  _126
REMARK   53  A    between atoms: _126  and  _127
REMARK   54  A    between atoms: _130  and  _132
REMARK   55  A    between atoms: _132  and  _133
REMARK   56  A    between atoms: _132  and  _135
REMARK   57  A    between atoms: _135  and  _136
REMARK   58  A    between atoms: _139  and  _141
REMARK   59  A    between atoms: _141  and  _142
REMARK   60  A    between atoms: _141  and  _144
REMARK   61  A    between atoms: _144  and  _145
REMARK   62  A    between atoms: _155  and  _157
REMARK   63  A    between atoms: _157  and  _158
REMARK   64  A    between atoms: _157  and  _160
REMARK   65  A    between atoms: _160  and  _161
REMARK   66  A    between atoms: _164  and  _166
REMARK   67  A    between atoms: _166  and  _167
REMARK   68  A    between atoms: _166  and  _169
REMARK   69  A    between atoms: _169  and  _170
REMARK   70  A    between atoms: _172  and  _174
REMARK   71  A    between atoms: _174  and  _175
REMARK   72  A    between atoms: _174  and  _177
REMARK   73  A    between atoms: _177  and  _178
REMARK   74  A    between atoms: _183  and  _184
REMARK   75  A    between atoms: _186  and  _188
REMARK   76  A    between atoms: _188  and  _189
REMARK   77  A    between atoms: _191  and  _193
REMARK   78  A    between atoms: _193  and  _194
REMARK   79  A    between atoms: _193  and  _196
REMARK   80  A    between atoms: _196  and  _197
REMARK   81  A    between atoms: _200  and  _202
REMARK   82  A    between atoms: _202  and  _203
REMARK   83  A    between atoms: _205  and  _207
REMARK   84  A    between atoms: _207  and  _208
REMARK   85  A    between atoms: _207  and  _210
REMARK   86  A    between atoms: _210  and  _211
REMARK   87  A    between atoms: _213  and  _215
REMARK   88  A    between atoms: _215  and  _216
REMARK   89  A    between atoms: _215  and  _218
REMARK   90  A    between atoms: _218  and  _219
REMARK   91  A    between atoms: _221  and  _223
REMARK   92  A    between atoms: _223  and  _224
REMARK   93  A    between atoms: _223  and  _226
REMARK   94  A    between atoms: _226  and  _227
REMARK   95  A    between atoms: _229  and  _231
REMARK   96  A    between atoms: _231  and  _232
REMARK   97  A    between atoms: _231  and  _234
REMARK   98  A    between atoms: _234  and  _235
REMARK   99  A    between atoms: _235  and  _236
REMARK  100  A    between atoms: _241  and  _243
REMARK  101  A    between atoms: _243  and  _244
REMARK  102  A    between atoms: _243  and  _246
REMARK  103  A    between atoms: _246  and  _247
REMARK  104  A    between atoms: _253  and  _255
REMARK  105  A    between atoms: _255  and  _256
REMARK  106  A    between atoms: _255  and  _258
REMARK  107  A    between atoms: _258  and  _259
REMARK  108  A    between atoms: _262  and  _264
REMARK  109  A    between atoms: _264  and  _265
REMARK  110  A    between atoms: _264  and  _267
REMARK  111  A    between atoms: _267  and  _268
REMARK  112  A    between atoms: _273  and  _275
REMARK  113  A    between atoms: _275  and  _276
REMARK  114  A    between atoms: _275  and  _278
REMARK  115  A    between atoms: _278  and  _279
REMARK  116  A    between atoms: _284  and  _286
REMARK  117  A    between atoms: _286  and  _287
REMARK  118  A    between atoms: _289  and  _291
REMARK  119  A    between atoms: _291  and  _292
REMARK  120  A    between atoms: _291  and  _294
REMARK  121  A    between atoms: _294  and  _295
REMARK  122  A    between atoms: _298  and  _300
REMARK  123  A    between atoms: _300  and  _301
REMARK  124  A    between atoms: _300  and  _303
REMARK  125  A    between atoms: _303  and  _304
REMARK  126  A    between atoms: _307  and  _309
REMARK  127  A    between atoms: _309  and  _310
REMARK  128  A    between atoms: _312  and  _314
REMARK  129  A    between atoms: _314  and  _315
REMARK  130  A    between atoms: _314  and  _317
REMARK  131  A    between atoms: _317  and  _318
REMARK  132  A    between atoms: _321  and  _323
REMARK  133  A    between atoms: _323  and  _324
REMARK  134  A    between atoms: _327  and  _329
REMARK  135  A    between atoms: _329  and  _330
REMARK  136  A    between atoms: _329  and  _332
REMARK  137  A    between atoms: _332  and  _333
REMARK  138  A    between atoms: _336  and  _338
REMARK  139  A    between atoms: _338  and  _339
REMARK  140  A    between atoms: _338  and  _341
REMARK  141  A    between atoms: _341  and  _342
REMARK  142  A    between atoms: _342  and  _343
REMARK  143  A    between atoms: _348  and  _350
REMARK  144  A    between atoms: _350  and  _351
REMARK  145  A    between atoms: _350  and  _353
REMARK  146  A    between atoms: _353  and  _354
REMARK  147  A    between atoms: _360  and  _362
REMARK  148  A    between atoms: _362  and  _363
REMARK  149  A    between atoms: _362  and  _365
REMARK  150  A    between atoms: _365  and  _366
REMARK  151  A    between atoms: _376  and  _378
REMARK  152  A    between atoms: _378  and  _379
REMARK  153  A    between atoms: _378  and  _381
REMARK  154  A    between atoms: _381  and  _382
REMARK  155  A    between atoms: _385  and  _387
REMARK  156  A    between atoms: _387  and  _388
REMARK  157  A    between atoms: _391  and  _393
REMARK  158  A    between atoms: _393  and  _394
REMARK  159  A    between atoms: _393  and  _396
REMARK  160  A    between atoms: _396  and  _397
REMARK  161  A    between atoms: _400  and  _402
REMARK  162  A    between atoms: _402  and  _403
REMARK  163  A    between atoms: _402  and  _405
REMARK  164  A    between atoms: _405  and  _406
REMARK  165  A    between atoms: _409  and  _411
REMARK  166  A    between atoms: _411  and  _412
REMARK  167  A    between atoms: _414  and  _416
REMARK  168  A    between atoms: _416  and  _417
REMARK  169  A    between atoms: _416  and  _419
REMARK  170  A    between atoms: _419  and  _420
REMARK  171  A    between atoms: _423  and  _425
REMARK  172  A    between atoms: _425  and  _426
REMARK  173  A    between atoms: _425  and  _428
REMARK  174  A    between atoms: _428  and  _429
REMARK  175  A    between atoms: _432  and  _434
REMARK  176  A    between atoms: _434  and  _435
REMARK  177  A    between atoms: _434  and  _437
REMARK  178  A    between atoms: _437  and  _438
REMARK  179  A    between atoms: _441  and  _443
REMARK  180  A    between atoms: _443  and  _444
REMARK  181  A    between atoms: _443  and  _446
REMARK  182  A    between atoms: _446  and  _447
REMARK  183  A    between atoms: _450  and  _452
REMARK  184  A    between atoms: _452  and  _453
REMARK  185  A    between atoms: _452  and  _455
REMARK  186  A    between atoms: _455  and  _456
REMARK  187  A    between atoms: _459  and  _461
REMARK  188  A    between atoms: _461  and  _462
REMARK  189  A    between atoms: _465  and  _467
REMARK  190  A    between atoms: _467  and  _468
REMARK  191  A    between atoms: _470  and  _472
REMARK  192  A    between atoms: _472  and  _473
REMARK  193  A    between atoms: _475  and  _477
REMARK  194  A    between atoms: _477  and  _478
REMARK  195  A    between atoms: _477  and  _480
REMARK  196  A    between atoms: _480  and  _481
REMARK  197  A    between atoms: _486  and  _487
REMARK  198  A    between atoms: _490  and  _491
REMARK  199  A    between atoms: _496  and  _498
REMARK  200  A    between atoms: _498  and  _499
REMARK  201  A    between atoms: _498  and  _501
REMARK  202  A    between atoms: _501  and  _502
REMARK  203  A    between atoms: _504  and  _506
REMARK  204  A    between atoms: _506  and  _507
REMARK  205  A    between atoms: _506  and  _509
REMARK  206  A    between atoms: _509  and  _510
REMARK  207  A    between atoms: _513  and  _515
REMARK  208  A    between atoms: _515  and  _516
REMARK  209  A    between atoms: _518  and  _520
REMARK  210  A    between atoms: _520  and  _521
REMARK  211  A    between atoms: _520  and  _523
REMARK  212  A    between atoms: _523  and  _524
REMARK  213  A    between atoms: _524  and  _525
REMARK  214  A    between atoms: _530  and  _532
REMARK  215  A    between atoms: _532  and  _533
REMARK  216  A    between atoms: _532  and  _535
REMARK  217  A    between atoms: _535  and  _536
REMARK  218  A    between atoms: _538  and  _540
REMARK  219  A    between atoms: _540  and  _541
REMARK  220  A    between atoms: _540  and  _543
REMARK  221  A    between atoms: _543  and  _544
REMARK  222  A    between atoms: _549  and  _551
REMARK  223  A    between atoms: _551  and  _552
REMARK  224  A    between atoms: _551  and  _554
REMARK  225  A    between atoms: _554  and  _555
REMARK  226  A    between atoms: _557  and  _559
REMARK  227  A    between atoms: _559  and  _560
REMARK  228  A    between atoms: _559  and  _562
REMARK  229  A    between atoms: _562  and  _563
REMARK  230  A    between atoms: _566  and  _568
REMARK  231  A    between atoms: _568  and  _569
REMARK  232  A    between atoms: _568  and  _571
REMARK  233  A    between atoms: _571  and  _572
REMARK  234  A    between atoms: _578  and  _580
REMARK  235  A    between atoms: _580  and  _581
REMARK  236  A    between atoms: _580  and  _583
REMARK  237  A    between atoms: _583  and  _584
REMARK  238  A    between atoms: _586  and  _588
REMARK  239  A    between atoms: _588  and  _589
REMARK  240  A    between atoms: _588  and  _591
REMARK  241  A    between atoms: _591  and  _592
REMARK  242  A    between atoms: _595  and  _597
REMARK  243  A    between atoms: _597  and  _598
REMARK  244  A    between atoms: _597  and  _600
REMARK  245  A    between atoms: _600  and  _601
REMARK  246  A    between atoms: _607  and  _609
REMARK  247  A    between atoms: _609  and  _610
REMARK  248  A    between atoms: _612  and  _614
REMARK  249  A    between atoms: _614  and  _615
REMARK  250  A    between atoms: _614  and  _617
REMARK  251  A    between atoms: _617  and  _618
REMARK                            x       y       z     vdW  Elec       q    Type
REMARK                         _______ _______ _______ _____ _____    ______ ____
ROOT
ATOM      1  CA  ASP A   1      24.816  -1.355  13.553  0.00  0.00    +0.144 C 
ENDROOT
BRANCH   1   2
ATOM      2  N   ASP A   1      25.294  -2.319  14.551  0.00  0.00    -0.239 NA
ATOM      3  H   ASP A   1      26.108  -2.092  15.158  0.00  0.00    +0.142 HD
ENDBRANCH   1   2
BRANCH   1   4
ATOM      4  C   ASP A   1      25.808  -1.257  12.410  0.00  0.00    +0.225 C 
ATOM      5  O   ASP A   1      26.867  -0.626  12.515  0.00  0.00    -0.287 OA
ENDBRANCH   1   4
BRANCH   1   6
ATOM      6  CB  ASP A   1      24.608   0.041  14.134  0.00  0.00    +0.139 C 
BRANCH   6   7
ATOM      7  CG  ASP A   1      24.036   1.034  13.129  0.00  0.00    +0.367 C 
ATOM      8  OD2 ASP A   1      23.756   2.149  13.635  0.00  0.00    -0.246 OA
ATOM      9  OD1 ASP A   1      23.887   0.745  11.940  0.00  0.00    -0.246 OA
ENDBRANCH   6   7
ENDBRANCH   1   6
TORSDOF 4
REMARK  Name = ../refined-set-2016/1bxq/1bxq_pocket.pdb
REMARK  251 active torsions:
REMARK  status: ('A' for Active; 'I' for Inactive)
REMARK    1  A    between atoms: _1  and  _3
REMARK    2  A    between atoms: _3  and  _4
REMARK    3  A    between atoms: _3  and  _6
REMARK    4  A    between atoms: _6  and  _7
REMARK    5  A    between atoms: _10  and  _12
REMARK    6  A    between atoms: _12  and  _13
REMARK    7  A    between atoms: _16  and  _18
REMARK    8  A    between atoms: _18  and  _19
REMARK    9  A    between atoms: _18  and  _21
REMARK   10  A    between atoms: _21  and  _22
REMARK   11  A    between atoms: _27  and  _29
REMARK   12  A    between atoms: _29  and  _30
REMARK   13  A    between atoms: _29  and  _32
REMARK   14  A    between atoms: _32  and  _33
REMARK   15  A    between atoms: _36  and  _38
REMARK   16  A    between atoms: _38  and  _39
REMARK   17  A    between atoms: _38  and  _41
REMARK   18  A    between atoms: _41  and  _42
REMARK   19  A    between atoms: _42  and  _43
REMARK   20  A    between atoms: _46  and  _48
REMARK   21  A    between atoms: _48  and  _49
REMARK   22  A    between atoms: _48  and  _51
REMARK   23  A    between atoms: _51  and  _52
REMARK   24  A    between atoms: _52  and  _53
REMARK   25  A    between atoms: _56  and  _58
REMARK   26  A    between atoms: _58  and  _59
REMARK   27  A    between atoms: _58  and  _61
REMARK   28  A    between atoms: _61  and  _62
REMARK   29  A    between atoms: _67  and  _68
REMARK   30  A    between atoms: _70  and  _72
REMARK   31  A    between atoms: _72  and  _73
REMARK   32  A    between atoms: _72  and  _75
REMARK   33  A    between atoms: _75  and  _76
REMARK   34  A    between atoms: _81  and  _83
REMARK   35  A    between atoms: _83  and  _84
REMARK   36  A    between atoms: _83  and  _86
REMARK   37  A    between atoms: _86  and  _87
REMARK   38  A    between atoms: _93  and  _95
REMARK   39  A    between atoms: _95  and  _96
REMARK   40  A    between atoms: _95  and  _98
REMARK   41  A    between atoms: _98  and  _99
REMARK   42  A    between atoms: _102  and  _104
REMARK   43  A    between atoms: _104  and  _105
REMARK   44  A    between atoms: _104  and  _107
REMARK   45  A    between atoms: _107  and  _108
REMARK   46  A    between atoms: _111  and  _113
REMARK   47  A    between atoms: _113  and  _114
REMARK   48  A    between atoms: _116  and  _118
REMARK   49  A    between atoms: _118  and  _119
REMARK   50  A    between atoms: _118  and  _121
REMARK   51  A    between atoms: _121  and  _122
REMARK   52  A    between atoms: _124  and  _126
REMARK   53  A    between atoms: _126  and  _127
REMARK   54  A    between atoms: _130  and  _132
REMARK   55  A    between atoms: _132  and  _133
REMARK   56  A    between atoms: _132  and  _135
REMARK   57  A    between atoms: _135  and  _136
REMARK   58  A    between atoms: _139  and  _141
REMARK   59  A    between atoms: _141  and  _142
REMARK   60  A    between atoms: _141  and  _144
REMARK   61  A    between atoms: _144  and  _145
REMARK   62  A    between atoms: _155  and  _157
REMARK   63  A    between atoms: _157  and  _158
REMARK   64  A    between atoms: _157  and  _160
REMARK   65  A    between atoms: _160  and  _161
REMARK   66  A    between atoms: _164  and  _166
REMARK   67  A    between atoms: _166  and  _167
REMARK   68  A    between atoms: _166  and  _169
REMARK   69  A    between atoms: _169  and  _170
REMARK   70  A    between atoms: _172  and  _174
REMARK   71  A    between atoms: _174  and  _175
REMARK   72  A    between atoms: _174  and  _177
REMARK   73  A    between atoms: _177  and  _178
REMARK   74  A    between atoms: _183  and  _184
REMARK   75  A    between atoms: _186  and  _188
REMARK   76  A    between atoms: _188  and  _189
REMARK   77  A    between atoms: _191  and  _193
REMARK   78  A    between atoms: _193  and  _194
REMARK   79  A    between atoms: _193  and  _196
REMARK   80  A    between atoms: _196  and  _197
REMARK   81  A    between atoms: _200  and  _202
REMARK   82  A    between atoms: _202  and  _203
REMARK   83  A    between atoms: _205  and  _207
REMARK   84  A    between atoms: _207  and  _208
REMARK   85  A    between atoms: _207  and  _210
REMARK   86  A    between atoms: _210  and  _211
REMARK   87  A    between atoms: _213  and  _215
REMARK   88  A    between atoms: _215  and  _216
REMARK   89  A    between atoms: _215  and  _218
REMARK   90  A    between atoms: _218  and  _219
REMARK   91  A    between atoms: _221  and  _223
REMARK   92  A    between atoms: _223  and  _224
REMARK   93  A    between atoms: _223  and  _226
REMARK   94  A    between atoms: _226  and  _227
REMARK   95  A    between atoms: _229  and  _231
REMARK   96  A    between atoms: _231  and  _232
REMARK   97  A    between atoms: _231  and  _234
REMARK   98  A    between atoms: _234  and  _235
REMARK   99  A    between atoms: _235  and  _236
REMARK  100  A    between atoms: _241  and  _243
REMARK  101  A    between atoms: _243  and  _244
REMARK  102  A    between atoms: _243  and  _246
REMARK  103  A    between atoms: _246  and  _247
REMARK  104  A    between atoms: _253  and  _255
REMARK  105  A    between atoms: _255  and  _256
REMARK  106  A    between atoms: _255  and  _258
REMARK  107  A    between atoms: _258  and  _259
REMARK  108  A    between atoms: _262  and  _264
REMARK  109  A    between atoms: _264  and  _265
REMARK  110  A    between atoms: _264  and  _267
REMARK  111  A    between atoms: _267  and  _268
REMARK  112  A    between atoms: _273  and  _275
REMARK  113  A    between atoms: _275  and  _276
REMARK  114  A    between atoms: _275  and  _278
REMARK  115  A    between atoms: _278  and  _279
REMARK  116  A    between atoms: _284  and  _286
REMARK  117  A    between atoms: _286  and  _287
REMARK  118  A    between atoms: _289  and  _291
REMARK  119  A    between atoms: _291  and  _292
REMARK  120  A    between atoms: _291  and  _294
REMARK  121  A    between atoms: _294  and  _295
REMARK  122  A    between atoms: _298  and  _300
REMARK  123  A    between atoms: _300  and  _301
REMARK  124  A    between atoms: _300  and  _303
REMARK  125  A    between atoms: _303  and  _304
REMARK  126  A    between atoms: _307  and  _309
REMARK  127  A    between atoms: _309  and  _310
REMARK  128  A    between atoms: _312  and  _314
REMARK  129  A    between atoms: _314  and  _315
REMARK  130  A    between atoms: _314  and  _317
REMARK  131  A    between atoms: _317  and  _318
REMARK  132  A    between atoms: _321  and  _323
REMARK  133  A    between atoms: _323  and  _324
REMARK  134  A    between atoms: _327  and  _329
REMARK  135  A    between atoms: _329  and  _330
REMARK  136  A    between atoms: _329  and  _332
REMARK  137  A    between atoms: _332  and  _333
REMARK  138  A    between atoms: _336  and  _338
REMARK  139  A    between atoms: _338  and  _339
REMARK  140  A    between atoms: _338  and  _341
REMARK  141  A    between atoms: _341  and  _342
REMARK  142  A    between atoms: _342  and  _343
REMARK  143  A    between atoms: _348  and  _350
REMARK  144  A    between atoms: _350  and  _351
REMARK  145  A    between atoms: _350  and  _353
REMARK  146  A    between atoms: _353  and  _354
REMARK  147  A    between atoms: _360  and  _362
REMARK  148  A    between atoms: _362  and  _363
REMARK  149  A    between atoms: _362  and  _365
REMARK  150  A    between atoms: _365  and  _366
REMARK  151  A    between atoms: _376  and  _378
REMARK  152  A    between atoms: _378  and  _379
REMARK  153  A    between atoms: _378  and  _381
REMARK  154  A    between atoms: _381  and  _382
REMARK  155  A    between atoms: _385  and  _387
REMARK  156  A    between atoms: _387  and  _388
REMARK  157  A    between atoms: _391  and  _393
REMARK  158  A    between atoms: _393  and  _394
REMARK  159  A    between atoms: _393  and  _396
REMARK  160  A    between atoms: _396  and  _397
REMARK  161  A    between atoms: _400  and  _402
REMARK  162  A    between atoms: _402  and  _403
REMARK  163  A    between atoms: _402  and  _405
REMARK  164  A    between atoms: _405  and  _406
REMARK  165  A    between atoms: _409  and  _411
REMARK  166  A    between atoms: _411  and  _412
REMARK  167  A    between atoms: _414  and  _416
REMARK  168  A    between atoms: _416  and  _417
REMARK  169  A    between atoms: _416  and  _419
REMARK  170  A    between atoms: _419  and  _420
REMARK  171  A    between atoms: _423  and  _425
REMARK  172  A    between atoms: _425  and  _426
REMARK  173  A    between atoms: _425  and  _428
REMARK  174  A    between atoms: _428  and  _429
REMARK  175  A    between atoms: _432  and  _434
REMARK  176  A    between atoms: _434  and  _435
REMARK  177  A    between atoms: _434  and  _437
REMARK  178  A    between atoms: _437  and  _438
REMARK  179  A    between atoms: _441  and  _443
REMARK  180  A    between atoms: _443  and  _444
REMARK  181  A    between atoms: _443  and  _446
REMARK  182  A    between atoms: _446  and  _447
REMARK  183  A    between atoms: _450  and  _452
REMARK  184  A    between atoms: _452  and  _453
REMARK  185  A    between atoms: _452  and  _455
REMARK  186  A    between atoms: _455  and  _456
REMARK  187  A    between atoms: _459  and  _461
REMARK  188  A    between atoms: _461  and  _462
REMARK  189  A    between atoms: _465  and  _467
REMARK  190  A    between atoms: _467  and  _468
REMARK  191  A    between atoms: _470  and  _472
REMARK  192  A    between atoms: _472  and  _473
REMARK  193  A    between atoms: _475  and  _477
REMARK  194  A    between atoms: _477  and  _478
REMARK  195  A    between atoms: _477  and  _480
REMARK  196  A    between atoms: _480  and  _481
REMARK  197  A    between atoms: _486  and  _487
REMARK  198  A    between atoms: _490  and  _491
REMARK  199  A    between atoms: _496  and  _498
REMARK  200  A    between atoms: _498  and  _499
REMARK  201  A    between atoms: _498  and  _501
REMARK  202  A    between atoms: _501  and  _502
REMARK  203  A    between atoms: _504  and  _506
REMARK  204  A    between atoms: _506  and  _507
REMARK  205  A    between atoms: _506  and  _509
REMARK  206  A    between atoms: _509  and  _510
REMARK  207  A    between atoms: _513  and  _515
REMARK  208  A    between atoms: _515  and  _516
REMARK  209  A    between atoms: _518  and  _520
REMARK  210  A    between atoms: _520  and  _521
REMARK  211  A    between atoms: _520  and  _523
REMARK  212  A    between atoms: _523  and  _524
REMARK  213  A    between atoms: _524  and  _525
REMARK  214  A    between atoms: _530  and  _532
REMARK  215  A    between atoms: _532  and  _533
REMARK  216  A    between atoms: _532  and  _535
REMARK  217  A    between atoms: _535  and  _536
REMARK  218  A    between atoms: _538  and  _540
REMARK  219  A    between atoms: _540  and  _541
REMARK  220  A    between atoms: _540  and  _543
REMARK  221  A    between atoms: _543  and  _544
REMARK  222  A    between atoms: _549  and  _551
REMARK  223  A    between atoms: _551  and  _552
REMARK  224  A    between atoms: _551  and  _554
REMARK  225  A    between atoms: _554  and  _555
REMARK  226  A    between atoms: _557  and  _559
REMARK  227  A    between atoms: _559  and  _560
REMARK  228  A    between atoms: _559  and  _562
REMARK  229  A    between atoms: _562  and  _563
REMARK  230  A    between atoms: _566  and  _568
REMARK  231  A    between atoms: _568  and  _569
REMARK  232  A    between atoms: _568  and  _571
REMARK  233  A    between atoms: _571  and  _572
REMARK  234  A    between atoms: _578  and  _580
REMARK  235  A    between atoms: _580  and  _581
REMARK  236  A    between atoms: _580  and  _583
REMARK  237  A    between atoms: _583  and  _584
REMARK  238  A    between atoms: _586  and  _588
REMARK  239  A    between atoms: _588  and  _589
REMARK  240  A    between atoms: _588  and  _591
REMARK  241  A    between atoms: _591  and  _592
REMARK  242  A    between atoms: _595  and  _597
REMARK  243  A    between atoms: _597  and  _598
REMARK  244  A    between atoms: _597  and  _600
REMARK  245  A    between atoms: _600  and  _601
REMARK  246  A    between atoms: _607  and  _609
REMARK  247  A    between atoms: _609  and  _610
REMARK  248  A    between atoms: _612  and  _614
REMARK  249  A    between atoms: _614  and  _615
REMARK  250  A    between atoms: _614  and  _617
REMARK  251  A    between atoms: _617  and  _618
REMARK                            x       y       z     vdW  Elec       q    Type
REMARK                         _______ _______ _______ _____ _____    ______ ____
ROOT
ATOM      1  C   ASN A   1      25.829   2.475   8.914  0.00  0.00    +0.239 C 
ATOM      2  N   ASN A   2      26.596   2.562  10.000  0.00  0.00    -0.298 N 
ATOM      3  H   ASN A   2      26.520   1.854  10.758  0.00  0.00    +0.150 HD
ATOM      4  O   ASN A   1      25.830   3.278   7.980  0.00  0.00    -0.274 OA
ENDROOT
BRANCH   1   5
ATOM      5  CA  ASN A   1      24.839   1.314   8.849  0.00  0.00    +0.154 C 
BRANCH   5   6
ATOM      6  N   ASN A   1      25.240   0.200   9.701  0.00  0.00    -0.238 NA
ATOM      7  H   ASN A   1      24.807   0.083  10.639  0.00  0.00    +0.142 HD
ENDBRANCH   5   6
BRANCH   5   8
ATOM      8  CB  ASN A   1      23.493   1.906   9.263  0.00  0.00    +0.111 C 
BRANCH   8   9
ATOM      9  CG  ASN A   1      22.306   1.026   8.920  0.00  0.00    +0.221 C 
ATOM     10  ND2 ASN A   1      21.499   0.810   9.945  0.00  0.00    -0.329 N 
ATOM     11 HD21 ASN A   1      21.709   1.235  10.871  0.00  0.00    +0.145 HD
ATOM     12 HD22 ASN A   1      20.655   0.215   9.826  0.00  0.00    +0.145 HD
ATOM     13  OD1 ASN A   1      22.150   0.573   7.790  0.00  0.00    -0.275 OA
ENDBRANCH   8   9
ENDBRANCH   5   8
ENDBRANCH   1   5
BRANCH   2  14
ATOM     14  CA  ASN A   2      27.537   3.658  10.109  0.00  0.00    +0.146 C 
BRANCH  14  15
ATOM     15  C   ASN A   2      28.889   3.024  10.470  0.00  0.00    +0.227 C 
ATOM     16  O   ASN A   2      28.954   1.873  10.906  0.00  0.00    -0.286 OA
ENDBRANCH  14  15
BRANCH  14  17
ATOM     17  CB  ASN A   2      27.158   4.785  11.082  0.00  0.00    +0.112 C 
BRANCH  17  18
ATOM     18  CG  ASN A   2      27.278   4.352  12.512  0.00  0.00    +0.222 C 
ATOM     19  ND2 ASN A   2      26.142   4.306  13.216  0.00  0.00    -0.329 N 
ATOM     20 HD21 ASN A   2      26.153   3.969  14.200  0.00  0.00    +0.145 HD
ATOM     21 HD22 ASN A   2      25.247   4.607  12.780  0.00  0.00    +0.145 HD
ATOM     22  OD1 ASN A   2      28.344   3.989  13.045  0.00  0.00    -0.275 OA
ENDBRANCH  17  18
ENDBRANCH  14  17
ENDBRANCH   2  14
TORSDOF 8
REMARK  Name = ../refined-set-2016/1bxq/1bxq_pocket.pdb
REMARK  251 active torsions:
REMARK  status: ('A' for Active; 'I' for Inactive)
REMARK    1  A    between atoms: _1  and  _3
REMARK    2  A    between atoms: _3  and  _4
REMARK    3  A    between atoms: _3  and  _6
REMARK    4  A    between atoms: _6  and  _7
REMARK    5  A    between atoms: _10  and  _12
REMARK    6  A    between atoms: _12  and  _13
REMARK    7  A    between atoms: _16  and  _18
REMARK    8  A    between atoms: _18  and  _19
REMARK    9  A    between atoms: _18  and  _21
REMARK   10  A    between atoms: _21  and  _22
REMARK   11  A    between atoms: _27  and  _29
REMARK   12  A    between atoms: _29  and  _30
REMARK   13  A    between atoms: _29  and  _32
REMARK   14  A    between atoms: _32  and  _33
REMARK   15  A    between atoms: _36  and  _38
REMARK   16  A    between atoms: _38  and  _39
REMARK   17  A    between atoms: _38  and  _41
REMARK   18  A    between atoms: _41  and  _42
REMARK   19  A    between atoms: _42  and  _43
REMARK   20  A    between atoms: _46  and  _48
REMARK   21  A    between atoms: _48  and  _49
REMARK   22  A    between atoms: _48  and  _51
REMARK   23  A    between atoms: _51  and  _52
REMARK   24  A    between atoms: _52  and  _53
REMARK   25  A    between atoms: _56  and  _58
REMARK   26  A    between atoms: _58  and  _59
REMARK   27  A    between atoms: _58  and  _61
REMARK   28  A    between atoms: _61  and  _62
REMARK   29  A    between atoms: _67  and  _68
REMARK   30  A    between atoms: _70  and  _72
REMARK   31  A    between atoms: _72  and  _73
REMARK   32  A    between atoms: _72  and  _75
REMARK   33  A    between atoms: _75  and  _76
REMARK   34  A    between atoms: _81  and  _83
REMARK   35  A    between atoms: _83  and  _84
REMARK   36  A    between atoms: _83  and  _86
REMARK   37  A    between atoms: _86  and  _87
REMARK   38  A    between atoms: _93  and  _95
REMARK   39  A    between atoms: _95  and  _96
REMARK   40  A    between atoms: _95  and  _98
REMARK   41  A    between atoms: _98  and  _99
REMARK   42  A    between atoms: _102  and  _104
REMARK   43  A    between atoms: _104  and  _105
REMARK   44  A    between atoms: _104  and  _107
REMARK   45  A    between atoms: _107  and  _108
REMARK   46  A    between atoms: _111  and  _113
REMARK   47  A    between atoms: _113  and  _114
REMARK   48  A    between atoms: _116  and  _118
REMARK   49  A    between atoms: _118  and  _119
REMARK   50  A    between atoms: _118  and  _121
REMARK   51  A    between atoms: _121  and  _122
REMARK   52  A    between atoms: _124  and  _126
REMARK   53  A    between atoms: _126  and  _127
REMARK   54  A    between atoms: _130  and  _132
REMARK   55  A    between atoms: _132  and  _133
REMARK   56  A    between atoms: _132  and  _135
REMARK   57  A    between atoms: _135  and  _136
REMARK   58  A    between atoms: _139  and  _141
REMARK   59  A    between atoms: _141  and  _142
REMARK   60  A    between atoms: _141  and  _144
REMARK   61  A    between atoms: _144  and  _145
REMARK   62  A    between atoms: _155  and  _157
REMARK   63  A    between atoms: _157  and  _158
REMARK   64  A    between atoms: _157  and  _160
REMARK   65  A    between atoms: _160  and  _161
REMARK   66  A    between atoms: _164  and  _166
REMARK   67  A    between atoms: _166  and  _167
REMARK   68  A    between atoms: _166  and  _169
REMARK   69  A    between atoms: _169  and  _170
REMARK   70  A    between atoms: _172  and  _174
REMARK   71  A    between atoms: _174  and  _175
REMARK   72  A    between atoms: _174  and  _177
REMARK   73  A    between atoms: _177  and  _178
REMARK   74  A    between atoms: _183  and  _184
REMARK   75  A    between atoms: _186  and  _188
REMARK   76  A    between atoms: _188  and  _189
REMARK   77  A    between atoms: _191  and  _193
REMARK   78  A    between atoms: _193  and  _194
REMARK   79  A    between atoms: _193  and  _196
REMARK   80  A    between atoms: _196  and  _197
REMARK   81  A    between atoms: _200  and  _202
REMARK   82  A    between atoms: _202  and  _203
REMARK   83  A    between atoms: _205  and  _207
REMARK   84  A    between atoms: _207  and  _208
REMARK   85  A    between atoms: _207  and  _210
REMARK   86  A    between atoms: _210  and  _211
REMARK   87  A    between atoms: _213  and  _215
REMARK   88  A    between atoms: _215  and  _216
REMARK   89  A    between atoms: _215  and  _218
REMARK   90  A    between atoms: _218  and  _219
REMARK   91  A    between atoms: _221  and  _223
REMARK   92  A    between atoms: _223  and  _224
REMARK   93  A    between atoms: _223  and  _226
REMARK   94  A    between atoms: _226  and  _227
REMARK   95  A    between atoms: _229  and  _231
REMARK   96  A    between atoms: _231  and  _232
REMARK   97  A    between atoms: _231  and  _234
REMARK   98  A    between atoms: _234  and  _235
REMARK   99  A    between atoms: _235  and  _236
REMARK  100  A    between atoms: _241  and  _243
REMARK  101  A    between atoms: _243  and  _244
REMARK  102  A    between atoms: _243  and  _246
REMARK  103  A    between atoms: _246  and  _247
REMARK  104  A    between atoms: _253  and  _255
REMARK  105  A    between atoms: _255  and  _256
REMARK  106  A    between atoms: _255  and  _258
REMARK  107  A    between atoms: _258  and  _259
REMARK  108  A    between atoms: _262  and  _264
REMARK  109  A    between atoms: _264  and  _265
REMARK  110  A    between atoms: _264  and  _267
REMARK  111  A    between atoms: _267  and  _268
REMARK  112  A    between atoms: _273  and  _275
REMARK  113  A    between atoms: _275  and  _276
REMARK  114  A    between atoms: _275  and  _278
REMARK  115  A    between atoms: _278  and  _279
REMARK  116  A    between atoms: _284  and  _286
REMARK  117  A    between atoms: _286  and  _287
REMARK  118  A    between atoms: _289  and  _291
REMARK  119  A    between atoms: _291  and  _292
REMARK  120  A    between atoms: _291  and  _294
REMARK  121  A    between atoms: _294  and  _295
REMARK  122  A    between atoms: _298  and  _300
REMARK  123  A    between atoms: _300  and  _301
REMARK  124  A    between atoms: _300  and  _303
REMARK  125  A    between atoms: _303  and  _304
REMARK  126  A    between atoms: _307  and  _309
REMARK  127  A    between atoms: _309  and  _310
REMARK  128  A    between atoms: _312  and  _314
REMARK  129  A    between atoms: _314  and  _315
REMARK  130  A    between atoms: _314  and  _317
REMARK  131  A    between atoms: _317  and  _318
REMARK  132  A    between atoms: _321  and  _323
REMARK  133  A    between atoms: _323  and  _324
REMARK  134  A    between atoms: _327  and  _329
REMARK  135  A    between atoms: _329  and  _330
REMARK  136  A    between atoms: _329  and  _332
REMARK  137  A    between atoms: _332  and  _333
REMARK  138  A    between atoms: _336  and  _338
REMARK  139  A    between atoms: _338  and  _339
REMARK  140  A    between atoms: _338  and  _341
REMARK  141  A    between atoms: _341  and  _342
REMARK  142  A    between atoms: _342  and  _343
REMARK  143  A    between atoms: _348  and  _350
REMARK  144  A    between atoms: _350  and  _351
REMARK  145  A    between atoms: _350  and  _353
REMARK  146  A    between atoms: _353  and  _354
REMARK  147  A    between atoms: _360  and  _362
REMARK  148  A    between atoms: _362  and  _363
REMARK  149  A    between atoms: _362  and  _365
REMARK  150  A    between atoms: _365  and  _366
REMARK  151  A    between atoms: _376  and  _378
REMARK  152  A    between atoms: _378  and  _379
REMARK  153  A    between atoms: _378  and  _381
REMARK  154  A    between atoms: _381  and  _382
REMARK  155  A    between atoms: _385  and  _387
REMARK  156  A    between atoms: _387  and  _388
REMARK  157  A    between atoms: _391  and  _393
REMARK  158  A    between atoms: _393  and  _394
REMARK  159  A    between atoms: _393  and  _396
REMARK  160  A    between atoms: _396  and  _397
REMARK  161  A    between atoms: _400  and  _402
REMARK  162  A    between atoms: _402  and  _403
REMARK  163  A    between atoms: _402  and  _405
REMARK  164  A    between atoms: _405  and  _406
REMARK  165  A    between atoms: _409  and  _411
REMARK  166  A    between atoms: _411  and  _412
REMARK  167  A    between atoms: _414  and  _416
REMARK  168  A    between atoms: _416  and  _417
REMARK  169  A    between atoms: _416  and  _419
REMARK  170  A    between atoms: _419  and  _420
REMARK  171  A    between atoms: _423  and  _425
REMARK  172  A    between atoms: _425  and  _426
REMARK  173  A    between atoms: _425  and  _428
REMARK  174  A    between atoms: _428  and  _429
REMARK  175  A    between atoms: _432  and  _434
REMARK  176  A    between atoms: _434  and  _435
REMARK  177  A    between atoms: _434  and  _437
REMARK  178  A    between atoms: _437  and  _438
REMARK  179  A    between atoms: _441  and  _443
REMARK  180  A    between atoms: _443  and  _444
REMARK  181  A    between atoms: _443  and  _446
REMARK  182  A    between atoms: _446  and  _447
REMARK  183  A    between atoms: _450  and  _452
REMARK  184  A    between atoms: _452  and  _453
REMARK  185  A    between atoms: _452  and  _455
REMARK  186  A    between atoms: _455  and  _456
REMARK  187  A    between atoms: _459  and  _461
REMARK  188  A    between atoms: _461  and  _462
REMARK  189  A    between atoms: _465  and  _467
REMARK  190  A    between atoms: _467  and  _468
REMARK  191  A    between atoms: _470  and  _472
REMARK  192  A    between atoms: _472  and  _473
REMARK  193  A    between atoms: _475  and  _477
REMARK  194  A    between atoms: _477  and  _478
REMARK  195  A    between atoms: _477  and  _480
REMARK  196  A    between atoms: _480  and  _481
REMARK  197  A    between atoms: _486  and  _487
REMARK  198  A    between atoms: _490  and  _491
REMARK  199  A    between atoms: _496  and  _498
REMARK  200  A    between atoms: _498  and  _499
REMARK  201  A    between atoms: _498  and  _501
REMARK  202  A    between atoms: _501  and  _502
REMARK  203  A    between atoms: _504  and  _506
REMARK  204  A    between atoms: _506  and  _507
REMARK  205  A    between atoms: _506  and  _509
REMARK  206  A    between atoms: _509  and  _510
REMARK  207  A    between atoms: _513  and  _515
REMARK  208  A    between atoms: _515  and  _516
REMARK  209  A    between atoms: _518  and  _520
REMARK  210  A    between atoms: _520  and  _521
REMARK  211  A    between atoms: _520  and  _523
REMARK  212  A    between atoms: _523  and  _524
REMARK  213  A    between atoms: _524  and  _525
REMARK  214  A    between atoms: _530  and  _532
REMARK  215  A    between atoms: _532  and  _533
REMARK  216  A    between atoms: _532  and  _535
REMARK  217  A    between atoms: _535  and  _536
REMARK  218  A    between atoms: _538  and  _540
REMARK  219  A    between atoms: _540  and  _541
REMARK  220  A    between atoms: _540  and  _543
REMARK  221  A    between atoms: _543  and  _544
REMARK  222  A    between atoms: _549  and  _551
REMARK  223  A    between atoms: _551  and  _552
REMARK  224  A    between atoms: _551  and  _554
REMARK  225  A    between atoms: _554  and  _555
REMARK  226  A    between atoms: _557  and  _559
REMARK  227  A    between atoms: _559  and  _560
REMARK  228  A    between atoms: _559  and  _562
REMARK  229  A    between atoms: _562  and  _563
REMARK  230  A    between atoms: _566  and  _568
REMARK  231  A    between atoms: _568  and  _569
REMARK  232  A    between atoms: _568  and  _571
REMARK  233  A    between atoms: _571  and  _572
REMARK  234  A    between atoms: _578  and  _580
REMARK  235  A    between atoms: _580  and  _581
REMARK  236  A    between atoms: _580  and  _583
REMARK  237  A    between atoms: _583  and  _584
REMARK  238  A    between atoms: _586  and  _588
REMARK  239  A    between atoms: _588  and  _589
REMARK  240  A    between atoms: _588  and  _591
REMARK  241  A    between atoms: _591  and  _592
REMARK  242  A    between atoms: _595  and  _597
REMARK  243  A    between atoms: _597  and  _598
REMARK  244  A    between atoms: _597  and  _600
REMARK  245  A    between atoms: _600  and  _601
REMARK  246  A    between atoms: _607  and  _609
REMARK  247  A    between atoms: _609  and  _610
REMARK  248  A    between atoms: _612  and  _614
REMARK  249  A    between atoms: _614  and  _615
REMARK  250  A    between atoms: _614  and  _617
REMARK  251  A    between atoms: _617  and  _618
REMARK                            x       y       z     vdW  Elec       q    Type
REMARK                         _______ _______ _______ _____ _____    ______ ____
ROOT
ATOM      1  C   LEU A   3      30.228  13.990  14.363  0.00  0.00    +0.241 C 
ATOM      2  N   GLY A   4      30.795  14.350  15.514  0.00  0.00    -0.295 N 
ATOM      3  H   GLY A   4      31.721  13.943  15.756  0.00  0.00    +0.150 HD
ATOM      4  O   LEU A   3      29.108  14.423  14.049  0.00  0.00    -0.273 OA
ENDROOT
BRANCH   2   5
ATOM      5  CA  GLY A   4      30.190  15.277  16.445  0.00  0.00    +0.176 C 
BRANCH   5   6
ATOM      6  C   GLY A   4      30.222  16.735  15.978  0.00  0.00    +0.243 C 
ATOM      7  N   LEU A   5      29.087  17.381  16.238  0.00  0.00    -0.297 N 
ATOM      8  H   LEU A   5      28.323  16.874  16.730  0.00  0.00    +0.150 HD
ATOM      9  O   GLY A   4      31.200  17.220  15.430  0.00  0.00    -0.273 OA
BRANCH   7  10
ATOM     10  CA  LEU A   5      28.875  18.778  15.857  0.00  0.00    +0.149 C 
BRANCH  10  11
ATOM     11  C   LEU A   5      28.350  19.608  17.021  0.00  0.00    +0.241 C 
ATOM     12  N   ALA A   6      28.389  19.099  18.230  0.00  0.00    -0.298 N 
ATOM     13  H   ALA A   6      28.601  18.086  18.337  0.00  0.00    +0.150 HD
ATOM     14  O   LEU A   5      27.942  20.781  16.808  0.00  0.00    -0.273 OA
BRANCH  12  15
ATOM     15  CA  ALA A   6      28.147  19.896  19.435  0.00  0.00    +0.137 C 
ATOM     16  CB  ALA A   6      27.820  19.021  20.621  0.00  0.00    +0.030 C 
BRANCH  15  17
ATOM     17  C   ALA A   6      29.378  20.760  19.677  0.00  0.00    +0.227 C 
ATOM     18  O   ALA A   6      30.333  20.687  18.907  0.00  0.00    -0.286 OA
ENDBRANCH  15  17
ENDBRANCH  12  15
ENDBRANCH  10  11
BRANCH  10  19
ATOM     19  CB  LEU A   5      27.957  18.879  14.650  0.00  0.00    +0.029 C 
BRANCH  19  20
ATOM     20  CG  LEU A   5      28.487  18.319  13.344  0.00  0.00    +0.002 C 
ATOM     21  CD2 LEU A   5      29.601  19.153  12.723  0.00  0.00    +0.000 C 
ATOM     22  CD1 LEU A   5      27.317  18.166  12.354  0.00  0.00    +0.000 C 
ENDBRANCH  19  20
ENDBRANCH  10  19
ENDBRANCH   7  10
ENDBRANCH   5   6
ENDBRANCH   2   5
BRANCH   1  23
ATOM     23  CA  LEU A   3      31.000  12.991  13.512  0.00  0.00    +0.149 C 
BRANCH  23  26
ATOM     24  C   LEU A   2      31.011  10.630  14.158  0.00  0.00    +0.241 C 
ATOM     25  O   LEU A   2      32.216  10.607  14.381  0.00  0.00    -0.273 OA
ATOM     26  N   LEU A   3      30.368  11.673  13.644  0.00  0.00    -0.297 N 
ATOM     27  H   LEU A   3      29.386  11.552  13.325  0.00  0.00    +0.150 HD
BRANCH  24  28
ATOM     28  CA  LEU A   2      30.134   9.420  14.452  0.00  0.00    +0.149 C 
BRANCH  28  30
ATOM     29  C   GLY A   1      30.420   7.219  13.455  0.00  0.00    +0.240 C 
ATOM     30  N   LEU A   2      30.851   8.184  14.245  0.00  0.00    -0.297 N 
ATOM     31  H   LEU A   2      31.753   8.047  14.744  0.00  0.00    +0.150 HD
ATOM     32  O   GLY A   1      29.424   7.317  12.741  0.00  0.00    -0.274 OA
BRANCH  29  33
ATOM     33  CA  GLY A   1      31.216   5.923  13.517  0.00  0.00    +0.169 C 
BRANCH  33  34
ATOM     34  N   GLY A   1      30.912   5.036  12.425  0.00  0.00    -0.236 NA
ATOM     35  H   GLY A   1      29.912   4.830  12.225  0.00  0.00    +0.142 HD
ENDBRANCH  33  34
ENDBRANCH  29  33
ENDBRANCH  28  30
BRANCH  28  36
ATOM     36  CB  LEU A   2      29.618   9.553  15.907  0.00  0.00    +0.029 C 
BRANCH  36  37
ATOM     37  CG  LEU A   2      28.173   9.157  16.140  0.00  0.00    +0.002 C 
ATOM     38  CD2 LEU A   2      27.655   9.589  17.504  0.00  0.00    +0.000 C 
ATOM     39  CD1 LEU A   2      28.054   7.630  15.958  0.00  0.00    +0.000 C 
ENDBRANCH  36  37
ENDBRANCH  28  36
ENDBRANCH  24  28
ENDBRANCH  23  26
BRANCH  23  40
ATOM     40  CB  LEU A   3      31.146  13.417  12.058  0.00  0.00    +0.029 C 
BRANCH  40  41
ATOM     41  CG  LEU A   3      32.014  14.642  11.764  0.00  0.00    +0.002 C 
ATOM     42  CD2 LEU A   3      31.189  15.918  11.879  0.00  0.00    +0.000 C 
ATOM     43  CD1 LEU A   3      32.699  14.548  10.397  0.00  0.00    +0.000 C 
ENDBRANCH  40  41
ENDBRANCH  23  40
ENDBRANCH   1  23
TORSDOF 18
REMARK  Name = ../refined-set-2016/1bxq/1bxq_pocket.pdb
REMARK  251 active torsions:
REMARK  status: ('A' for Active; 'I' for Inactive)
REMARK    1  A    between atoms: _1  and  _3
REMARK    2  A    between atoms: _3  and  _4
REMARK    3  A    between atoms: _3  and  _6
REMARK    4  A    between atoms: _6  and  _7
REMARK    5  A    between atoms: _10  and  _12
REMARK    6  A    between atoms: _12  and  _13
REMARK    7  A    between atoms: _16  and  _18
REMARK    8  A    between atoms: _18  and  _19
REMARK    9  A    between atoms: _18  and  _21
REMARK   10  A    between atoms: _21  and  _22
REMARK   11  A    between atoms: _27  and  _29
REMARK   12  A    between atoms: _29  and  _30
REMARK   13  A    between atoms: _29  and  _32
REMARK   14  A    between atoms: _32  and  _33
REMARK   15  A    between atoms: _36  and  _38
REMARK   16  A    between atoms: _38  and  _39
REMARK   17  A    between atoms: _38  and  _41
REMARK   18  A    between atoms: _41  and  _42
REMARK   19  A    between atoms: _42  and  _43
REMARK   20  A    between atoms: _46  and  _48
REMARK   21  A    between atoms: _48  and  _49
REMARK   22  A    between atoms: _48  and  _51
REMARK   23  A    between atoms: _51  and  _52
REMARK   24  A    between atoms: _52  and  _53
REMARK   25  A    between atoms: _56  and  _58
REMARK   26  A    between atoms: _58  and  _59
REMARK   27  A    between atoms: _58  and  _61
REMARK   28  A    between atoms: _61  and  _62
REMARK   29  A    between atoms: _67  and  _68
REMARK   30  A    between atoms: _70  and  _72
REMARK   31  A    between atoms: _72  and  _73
REMARK   32  A    between atoms: _72  and  _75
REMARK   33  A    between atoms: _75  and  _76
REMARK   34  A    between atoms: _81  and  _83
REMARK   35  A    between atoms: _83  and  _84
REMARK   36  A    between atoms: _83  and  _86
REMARK   37  A    between atoms: _86  and  _87
REMARK   38  A    between atoms: _93  and  _95
REMARK   39  A    between atoms: _95  and  _96
REMARK   40  A    between atoms: _95  and  _98
REMARK   41  A    between atoms: _98  and  _99
REMARK   42  A    between atoms: _102  and  _104
REMARK   43  A    between atoms: _104  and  _105
REMARK   44  A    between atoms: _104  and  _107
REMARK   45  A    between atoms: _107  and  _108
REMARK   46  A    between atoms: _111  and  _113
REMARK   47  A    between atoms: _113  and  _114
REMARK   48  A    between atoms: _116  and  _118
REMARK   49  A    between atoms: _118  and  _119
REMARK   50  A    between atoms: _118  and  _121
REMARK   51  A    between atoms: _121  and  _122
REMARK   52  A    between atoms: _124  and  _126
REMARK   53  A    between atoms: _126  and  _127
REMARK   54  A    between atoms: _130  and  _132
REMARK   55  A    between atoms: _132  and  _133
REMARK   56  A    between atoms: _132  and  _135
REMARK   57  A    between atoms: _135  and  _136
REMARK   58  A    between atoms: _139  and  _141
REMARK   59  A    between atoms: _141  and  _142
REMARK   60  A    between atoms: _141  and  _144
REMARK   61  A    between atoms: _144  and  _145
REMARK   62  A    between atoms: _155  and  _157
REMARK   63  A    between atoms: _157  and  _158
REMARK   64  A    between atoms: _157  and  _160
REMARK   65  A    between atoms: _160  and  _161
REMARK   66  A    between atoms: _164  and  _166
REMARK   67  A    between atoms: _166  and  _167
REMARK   68  A    between atoms: _166  and  _169
REMARK   69  A    between atoms: _169  and  _170
REMARK   70  A    between atoms: _172  and  _174
REMARK   71  A    between atoms: _174  and  _175
REMARK   72  A    between atoms: _174  and  _177
REMARK   73  A    between atoms: _177  and  _178
REMARK   74  A    between atoms: _183  and  _184
REMARK   75  A    between atoms: _186  and  _188
REMARK   76  A    between atoms: _188  and  _189
REMARK   77  A    between atoms: _191  and  _193
REMARK   78  A    between atoms: _193  and  _194
REMARK   79  A    between atoms: _193  and  _196
REMARK   80  A    between atoms: _196  and  _197
REMARK   81  A    between atoms: _200  and  _202
REMARK   82  A    between atoms: _202  and  _203
REMARK   83  A    between atoms: _205  and  _207
REMARK   84  A    between atoms: _207  and  _208
REMARK   85  A    between atoms: _207  and  _210
REMARK   86  A    between atoms: _210  and  _211
REMARK   87  A    between atoms: _213  and  _215
REMARK   88  A    between atoms: _215  and  _216
REMARK   89  A    between atoms: _215  and  _218
REMARK   90  A    between atoms: _218  and  _219
REMARK   91  A    between atoms: _221  and  _223
REMARK   92  A    between atoms: _223  and  _224
REMARK   93  A    between atoms: _223  and  _226
REMARK   94  A    between atoms: _226  and  _227
REMARK   95  A    between atoms: _229  and  _231
REMARK   96  A    between atoms: _231  and  _232
REMARK   97  A    between atoms: _231  and  _234
REMARK   98  A    between atoms: _234  and  _235
REMARK   99  A    between atoms: _235  and  _236
REMARK  100  A    between atoms: _241  and  _243
REMARK  101  A    between atoms: _243  and  _244
REMARK  102  A    between atoms: _243  and  _246
REMARK  103  A    between atoms: _246  and  _247
REMARK  104  A    between atoms: _253  and  _255
REMARK  105  A    between atoms: _255  and  _256
REMARK  106  A    between atoms: _255  and  _258
REMARK  107  A    between atoms: _258  and  _259
REMARK  108  A    between atoms: _262  and  _264
REMARK  109  A    between atoms: _264  and  _265
REMARK  110  A    between atoms: _264  and  _267
REMARK  111  A    between atoms: _267  and  _268
REMARK  112  A    between atoms: _273  and  _275
REMARK  113  A    between atoms: _275  and  _276
REMARK  114  A    between atoms: _275  and  _278
REMARK  115  A    between atoms: _278  and  _279
REMARK  116  A    between atoms: _284  and  _286
REMARK  117  A    between atoms: _286  and  _287
REMARK  118  A    between atoms: _289  and  _291
REMARK  119  A    between atoms: _291  and  _292
REMARK  120  A    between atoms: _291  and  _294
REMARK  121  A    between atoms: _294  and  _295
REMARK  122  A    between atoms: _298  and  _300
REMARK  123  A    between atoms: _300  and  _301
REMARK  124  A    between atoms: _300  and  _303
REMARK  125  A    between atoms: _303  and  _304
REMARK  126  A    between atoms: _307  and  _309
REMARK  127  A    between atoms: _309  and  _310
REMARK  128  A    between atoms: _312  and  _314
REMARK  129  A    between atoms: _314  and  _315
REMARK  130  A    between atoms: _314  and  _317
REMARK  131  A    between atoms: _317  and  _318
REMARK  132  A    between atoms: _321  and  _323
REMARK  133  A    between atoms: _323  and  _324
REMARK  134  A    between atoms: _327  and  _329
REMARK  135  A    between atoms: _329  and  _330
REMARK  136  A    between atoms: _329  and  _332
REMARK  137  A    between atoms: _332  and  _333
REMARK  138  A    between atoms: _336  and  _338
REMARK  139  A    between atoms: _338  and  _339
REMARK  140  A    between atoms: _338  and  _341
REMARK  141  A    between atoms: _341  and  _342
REMARK  142  A    between atoms: _342  and  _343
REMARK  143  A    between atoms: _348  and  _350
REMARK  144  A    between atoms: _350  and  _351
REMARK  145  A    between atoms: _350  and  _353
REMARK  146  A    between atoms: _353  and  _354
REMARK  147  A    between atoms: _360  and  _362
REMARK  148  A    between atoms: _362  and  _363
REMARK  149  A    between atoms: _362  and  _365
REMARK  150  A    between atoms: _365  and  _366
REMARK  151  A    between atoms: _376  and  _378
REMARK  152  A    between atoms: _378  and  _379
REMARK  153  A    between atoms: _378  and  _381
REMARK  154  A    between atoms: _381  and  _382
REMARK  155  A    between atoms: _385  and  _387
REMARK  156  A    between atoms: _387  and  _388
REMARK  157  A    between atoms: _391  and  _393
REMARK  158  A    between atoms: _393  and  _394
REMARK  159  A    between atoms: _393  and  _396
REMARK  160  A    between atoms: _396  and  _397
REMARK  161  A    between atoms: _400  and  _402
REMARK  162  A    between atoms: _402  and  _403
REMARK  163  A    between atoms: _402  and  _405
REMARK  164  A    between atoms: _405  and  _406
REMARK  165  A    between atoms: _409  and  _411
REMARK  166  A    between atoms: _411  and  _412
REMARK  167  A    between atoms: _414  and  _416
REMARK  168  A    between atoms: _416  and  _417
REMARK  169  A    between atoms: _416  and  _419
REMARK  170  A    between atoms: _419  and  _420
REMARK  171  A    between atoms: _423  and  _425
REMARK  172  A    between atoms: _425  and  _426
REMARK  173  A    between atoms: _425  and  _428
REMARK  174  A    between atoms: _428  and  _429
REMARK  175  A    between atoms: _432  and  _434
REMARK  176  A    between atoms: _434  and  _435
REMARK  177  A    between atoms: _434  and  _437
REMARK  178  A    between atoms: _437  and  _438
REMARK  179  A    between atoms: _441  and  _443
REMARK  180  A    between atoms: _443  and  _444
REMARK  181  A    between atoms: _443  and  _446
REMARK  182  A    between atoms: _446  and  _447
REMARK  183  A    between atoms: _450  and  _452
REMARK  184  A    between atoms: _452  and  _453
REMARK  185  A    between atoms: _452  and  _455
REMARK  186  A    between atoms: _455  and  _456
REMARK  187  A    between atoms: _459  and  _461
REMARK  188  A    between atoms: _461  and  _462
REMARK  189  A    between atoms: _465  and  _467
REMARK  190  A    between atoms: _467  and  _468
REMARK  191  A    between atoms: _470  and  _472
REMARK  192  A    between atoms: _472  and  _473
REMARK  193  A    between atoms: _475  and  _477
REMARK  194  A    between atoms: _477  and  _478
REMARK  195  A    between atoms: _477  and  _480
REMARK  196  A    between atoms: _480  and  _481
REMARK  197  A    between atoms: _486  and  _487
REMARK  198  A    between atoms: _490  and  _491
REMARK  199  A    between atoms: _496  and  _498
REMARK  200  A    between atoms: _498  and  _499
REMARK  201  A    between atoms: _498  and  _501
REMARK  202  A    between atoms: _501  and  _502
REMARK  203  A    between atoms: _504  and  _506
REMARK  204  A    between atoms: _506  and  _507
REMARK  205  A    between atoms: _506  and  _509
REMARK  206  A    between atoms: _509  and  _510
REMARK  207  A    between atoms: _513  and  _515
REMARK  208  A    between atoms: _515  and  _516
REMARK  209  A    between atoms: _518  and  _520
REMARK  210  A    between atoms: _520  and  _521
REMARK  211  A    between atoms: _520  and  _523
REMARK  212  A    between atoms: _523  and  _524
REMARK  213  A    between atoms: _524  and  _525
REMARK  214  A    between atoms: _530  and  _532
REMARK  215  A    between atoms: _532  and  _533
REMARK  216  A    between atoms: _532  and  _535
REMARK  217  A    between atoms: _535  and  _536
REMARK  218  A    between atoms: _538  and  _540
REMARK  219  A    between atoms: _540  and  _541
REMARK  220  A    between atoms: _540  and  _543
REMARK  221  A    between atoms: _543  and  _544
REMARK  222  A    between atoms: _549  and  _551
REMARK  223  A    between atoms: _551  and  _552
REMARK  224  A    between atoms: _551  and  _554
REMARK  225  A    between atoms: _554  and  _555
REMARK  226  A    between atoms: _557  and  _559
REMARK  227  A    between atoms: _559  and  _560
REMARK  228  A    between atoms: _559  and  _562
REMARK  229  A    between atoms: _562  and  _563
REMARK  230  A    between atoms: _566  and  _568
REMARK  231  A    between atoms: _568  and  _569
REMARK  232  A    between atoms: _568  and  _571
REMARK  233  A    between atoms: _571  and  _572
REMARK  234  A    between atoms: _578  and  _580
REMARK  235  A    between atoms: _580  and  _581
REMARK  236  A    between atoms: _580  and  _583
REMARK  237  A    between atoms: _583  and  _584
REMARK  238  A    between atoms: _586  and  _588
REMARK  239  A    between atoms: _588  and  _589
REMARK  240  A    between atoms: _588  and  _591
REMARK  241  A    between atoms: _591  and  _592
REMARK  242  A    between atoms: _595  and  _597
REMARK  243  A    between atoms: _597  and  _598
REMARK  244  A    between atoms: _597  and  _600
REMARK  245  A    between atoms: _600  and  _601
REMARK  246  A    between atoms: _607  and  _609
REMARK  247  A    between atoms: _609  and  _610
REMARK  248  A    between atoms: _612  and  _614
REMARK  249  A    between atoms: _614  and  _615
REMARK  250  A    between atoms: _614  and  _617
REMARK  251  A    between atoms: _617  and  _618
REMARK                            x       y       z     vdW  Elec       q    Type
REMARK                         _______ _______ _______ _____ _____    ______ ____
ROOT
ATOM      1  CA  ILE A   1      32.399  18.497  25.522  0.00  0.00    +0.133 C 
ENDROOT
BRANCH   1   2
ATOM      2  N   ILE A   1      32.775  19.800  24.986  0.00  0.00    -0.239 NA
ATOM      3  H   ILE A   1      32.367  20.139  24.091  0.00  0.00    +0.142 HD
ENDBRANCH   1   2
BRANCH   1   4
ATOM      4  CB  ILE A   1      30.878  18.381  25.635  0.00  0.00    +0.023 C 
ATOM      5  CG2 ILE A   1      30.410  19.414  26.680  0.00  0.00    +0.002 C 
BRANCH   4   6
ATOM      6  CG1 ILE A   1      30.090  18.553  24.348  0.00  0.00    +0.002 C 
ATOM      7  CD1 ILE A   1      28.642  18.148  24.462  0.00  0.00    +0.000 C 
ENDBRANCH   4   6
ENDBRANCH   1   4
BRANCH   1   8
ATOM      8  C   ILE A   1      32.976  17.345  24.717  0.00  0.00    +0.224 C 
ATOM      9  O   ILE A   1      32.591  16.176  24.881  0.00  0.00    -0.287 OA
ENDBRANCH   1   8
TORSDOF 4
REMARK  Name = ../refined-set-2016/1bxq/1bxq_pocket.pdb
REMARK  251 active torsions:
REMARK  status: ('A' for Active; 'I' for Inactive)
REMARK    1  A    between atoms: _1  and  _3
REMARK    2  A    between atoms: _3  and  _4
REMARK    3  A    between atoms: _3  and  _6
REMARK    4  A    between atoms: _6  and  _7
REMARK    5  A    between atoms: _10  and  _12
REMARK    6  A    between atoms: _12  and  _13
REMARK    7  A    between atoms: _16  and  _18
REMARK    8  A    between atoms: _18  and  _19
REMARK    9  A    between atoms: _18  and  _21
REMARK   10  A    between atoms: _21  and  _22
REMARK   11  A    between atoms: _27  and  _29
REMARK   12  A    between atoms: _29  and  _30
REMARK   13  A    between atoms: _29  and  _32
REMARK   14  A    between atoms: _32  and  _33
REMARK   15  A    between atoms: _36  and  _38
REMARK   16  A    between atoms: _38  and  _39
REMARK   17  A    between atoms: _38  and  _41
REMARK   18  A    between atoms: _41  and  _42
REMARK   19  A    between atoms: _42  and  _43
REMARK   20  A    between atoms: _46  and  _48
REMARK   21  A    between atoms: _48  and  _49
REMARK   22  A    between atoms: _48  and  _51
REMARK   23  A    between atoms: _51  and  _52
REMARK   24  A    between atoms: _52  and  _53
REMARK   25  A    between atoms: _56  and  _58
REMARK   26  A    between atoms: _58  and  _59
REMARK   27  A    between atoms: _58  and  _61
REMARK   28  A    between atoms: _61  and  _62
REMARK   29  A    between atoms: _67  and  _68
REMARK   30  A    between atoms: _70  and  _72
REMARK   31  A    between atoms: _72  and  _73
REMARK   32  A    between atoms: _72  and  _75
REMARK   33  A    between atoms: _75  and  _76
REMARK   34  A    between atoms: _81  and  _83
REMARK   35  A    between atoms: _83  and  _84
REMARK   36  A    between atoms: _83  and  _86
REMARK   37  A    between atoms: _86  and  _87
REMARK   38  A    between atoms: _93  and  _95
REMARK   39  A    between atoms: _95  and  _96
REMARK   40  A    between atoms: _95  and  _98
REMARK   41  A    between atoms: _98  and  _99
REMARK   42  A    between atoms: _102  and  _104
REMARK   43  A    between atoms: _104  and  _105
REMARK   44  A    between atoms: _104  and  _107
REMARK   45  A    between atoms: _107  and  _108
REMARK   46  A    between atoms: _111  and  _113
REMARK   47  A    between atoms: _113  and  _114
REMARK   48  A    between atoms: _116  and  _118
REMARK   49  A    between atoms: _118  and  _119
REMARK   50  A    between atoms: _118  and  _121
REMARK   51  A    between atoms: _121  and  _122
REMARK   52  A    between atoms: _124  and  _126
REMARK   53  A    between atoms: _126  and  _127
REMARK   54  A    between atoms: _130  and  _132
REMARK   55  A    between atoms: _132  and  _133
REMARK   56  A    between atoms: _132  and  _135
REMARK   57  A    between atoms: _135  and  _136
REMARK   58  A    between atoms: _139  and  _141
REMARK   59  A    between atoms: _141  and  _142
REMARK   60  A    between atoms: _141  and  _144
REMARK   61  A    between atoms: _144  and  _145
REMARK   62  A    between atoms: _155  and  _157
REMARK   63  A    between atoms: _157  and  _158
REMARK   64  A    between atoms: _157  and  _160
REMARK   65  A    between atoms: _160  and  _161
REMARK   66  A    between atoms: _164  and  _166
REMARK   67  A    between atoms: _166  and  _167
REMARK   68  A    between atoms: _166  and  _169
REMARK   69  A    between atoms: _169  and  _170
REMARK   70  A    between atoms: _172  and  _174
REMARK   71  A    between atoms: _174  and  _175
REMARK   72  A    between atoms: _174  and  _177
REMARK   73  A    between atoms: _177  and  _178
REMARK   74  A    between atoms: _183  and  _184
REMARK   75  A    between atoms: _186  and  _188
REMARK   76  A    between atoms: _188  and  _189
REMARK   77  A    between atoms: _191  and  _193
REMARK   78  A    between atoms: _193  and  _194
REMARK   79  A    between atoms: _193  and  _196
REMARK   80  A    between atoms: _196  and  _197
REMARK   81  A    between atoms: _200  and  _202
REMARK   82  A    between atoms: _202  and  _203
REMARK   83  A    between atoms: _205  and  _207
REMARK   84  A    between atoms: _207  and  _208
REMARK   85  A    between atoms: _207  and  _210
REMARK   86  A    between atoms: _210  and  _211
REMARK   87  A    between atoms: _213  and  _215
REMARK   88  A    between atoms: _215  and  _216
REMARK   89  A    between atoms: _215  and  _218
REMARK   90  A    between atoms: _218  and  _219
REMARK   91  A    between atoms: _221  and  _223
REMARK   92  A    between atoms: _223  and  _224
REMARK   93  A    between atoms: _223  and  _226
REMARK   94  A    between atoms: _226  and  _227
REMARK   95  A    between atoms: _229  and  _231
REMARK   96  A    between atoms: _231  and  _232
REMARK   97  A    between atoms: _231  and  _234
REMARK   98  A    between atoms: _234  and  _235
REMARK   99  A    between atoms: _235  and  _236
REMARK  100  A    between atoms: _241  and  _243
REMARK  101  A    between atoms: _243  and  _244
REMARK  102  A    between atoms: _243  and  _246
REMARK  103  A    between atoms: _246  and  _247
REMARK  104  A    between atoms: _253  and  _255
REMARK  105  A    between atoms: _255  and  _256
REMARK  106  A    between atoms: _255  and  _258
REMARK  107  A    between atoms: _258  and  _259
REMARK  108  A    between atoms: _262  and  _264
REMARK  109  A    between atoms: _264  and  _265
REMARK  110  A    between atoms: _264  and  _267
REMARK  111  A    between atoms: _267  and  _268
REMARK  112  A    between atoms: _273  and  _275
REMARK  113  A    between atoms: _275  and  _276
REMARK  114  A    between atoms: _275  and  _278
REMARK  115  A    between atoms: _278  and  _279
REMARK  116  A    between atoms: _284  and  _286
REMARK  117  A    between atoms: _286  and  _287
REMARK  118  A    between atoms: _289  and  _291
REMARK  119  A    between atoms: _291  and  _292
REMARK  120  A    between atoms: _291  and  _294
REMARK  121  A    between atoms: _294  and  _295
REMARK  122  A    between atoms: _298  and  _300
REMARK  123  A    between atoms: _300  and  _301
REMARK  124  A    between atoms: _300  and  _303
REMARK  125  A    between atoms: _303  and  _304
REMARK  126  A    between atoms: _307  and  _309
REMARK  127  A    between atoms: _309  and  _310
REMARK  128  A    between atoms: _312  and  _314
REMARK  129  A    between atoms: _314  and  _315
REMARK  130  A    between atoms: _314  and  _317
REMARK  131  A    between atoms: _317  and  _318
REMARK  132  A    between atoms: _321  and  _323
REMARK  133  A    between atoms: _323  and  _324
REMARK  134  A    between atoms: _327  and  _329
REMARK  135  A    between atoms: _329  and  _330
REMARK  136  A    between atoms: _329  and  _332
REMARK  137  A    between atoms: _332  and  _333
REMARK  138  A    between atoms: _336  and  _338
REMARK  139  A    between atoms: _338  and  _339
REMARK  140  A    between atoms: _338  and  _341
REMARK  141  A    between atoms: _341  and  _342
REMARK  142  A    between atoms: _342  and  _343
REMARK  143  A    between atoms: _348  and  _350
REMARK  144  A    between atoms: _350  and  _351
REMARK  145  A    between atoms: _350  and  _353
REMARK  146  A    between atoms: _353  and  _354
REMARK  147  A    between atoms: _360  and  _362
REMARK  148  A    between atoms: _362  and  _363
REMARK  149  A    between atoms: _362  and  _365
REMARK  150  A    between atoms: _365  and  _366
REMARK  151  A    between atoms: _376  and  _378
REMARK  152  A    between atoms: _378  and  _379
REMARK  153  A    between atoms: _378  and  _381
REMARK  154  A    between atoms: _381  and  _382
REMARK  155  A    between atoms: _385  and  _387
REMARK  156  A    between atoms: _387  and  _388
REMARK  157  A    between atoms: _391  and  _393
REMARK  158  A    between atoms: _393  and  _394
REMARK  159  A    between atoms: _393  and  _396
REMARK  160  A    between atoms: _396  and  _397
REMARK  161  A    between atoms: _400  and  _402
REMARK  162  A    between atoms: _402  and  _403
REMARK  163  A    between atoms: _402  and  _405
REMARK  164  A    between atoms: _405  and  _406
REMARK  165  A    between atoms: _409  and  _411
REMARK  166  A    between atoms: _411  and  _412
REMARK  167  A    between atoms: _414  and  _416
REMARK  168  A    between atoms: _416  and  _417
REMARK  169  A    between atoms: _416  and  _419
REMARK  170  A    between atoms: _419  and  _420
REMARK  171  A    between atoms: _423  and  _425
REMARK  172  A    between atoms: _425  and  _426
REMARK  173  A    between atoms: _425  and  _428
REMARK  174  A    between atoms: _428  and  _429
REMARK  175  A    between atoms: _432  and  _434
REMARK  176  A    between atoms: _434  and  _435
REMARK  177  A    between atoms: _434  and  _437
REMARK  178  A    between atoms: _437  and  _438
REMARK  179  A    between atoms: _441  and  _443
REMARK  180  A    between atoms: _443  and  _444
REMARK  181  A    between atoms: _443  and  _446
REMARK  182  A    between atoms: _446  and  _447
REMARK  183  A    between atoms: _450  and  _452
REMARK  184  A    between atoms: _452  and  _453
REMARK  185  A    between atoms: _452  and  _455
REMARK  186  A    between atoms: _455  and  _456
REMARK  187  A    between atoms: _459  and  _461
REMARK  188  A    between atoms: _461  and  _462
REMARK  189  A    between atoms: _465  and  _467
REMARK  190  A    between atoms: _467  and  _468
REMARK  191  A    between atoms: _470  and  _472
REMARK  192  A    between atoms: _472  and  _473
REMARK  193  A    between atoms: _475  and  _477
REMARK  194  A    between atoms: _477  and  _478
REMARK  195  A    between atoms: _477  and  _480
REMARK  196  A    between atoms: _480  and  _481
REMARK  197  A    between atoms: _486  and  _487
REMARK  198  A    between atoms: _490  and  _491
REMARK  199  A    between atoms: _496  and  _498
REMARK  200  A    between atoms: _498  and  _499
REMARK  201  A    between atoms: _498  and  _501
REMARK  202  A    between atoms: _501  and  _502
REMARK  203  A    between atoms: _504  and  _506
REMARK  204  A    between atoms: _506  and  _507
REMARK  205  A    between atoms: _506  and  _509
REMARK  206  A    between atoms: _509  and  _510
REMARK  207  A    between atoms: _513  and  _515
REMARK  208  A    between atoms: _515  and  _516
REMARK  209  A    between atoms: _518  and  _520
REMARK  210  A    between atoms: _520  and  _521
REMARK  211  A    between atoms: _520  and  _523
REMARK  212  A    between atoms: _523  and  _524
REMARK  213  A    between atoms: _524  and  _525
REMARK  214  A    between atoms: _530  and  _532
REMARK  215  A    between atoms: _532  and  _533
REMARK  216  A    between atoms: _532  and  _535
REMARK  217  A    between atoms: _535  and  _536
REMARK  218  A    between atoms: _538  and  _540
REMARK  219  A    between atoms: _540  and  _541
REMARK  220  A    between atoms: _540  and  _543
REMARK  221  A    between atoms: _543  and  _544
REMARK  222  A    between atoms: _549  and  _551
REMARK  223  A    between atoms: _551  and  _552
REMARK  224  A    between atoms: _551  and  _554
REMARK  225  A    between atoms: _554  and  _555
REMARK  226  A    between atoms: _557  and  _559
REMARK  227  A    between atoms: _559  and  _560
REMARK  228  A    between atoms: _559  and  _562
REMARK  229  A    between atoms: _562  and  _563
REMARK  230  A    between atoms: _566  and  _568
REMARK  231  A    between atoms: _568  and  _569
REMARK  232  A    between atoms: _568  and  _571
REMARK  233  A    between atoms: _571  and  _572
REMARK  234  A    between atoms: _578  and  _580
REMARK  235  A    between atoms: _580  and  _581
REMARK  236  A    between atoms: _580  and  _583
REMARK  237  A    between atoms: _583  and  _584
REMARK  238  A    between atoms: _586  and  _588
REMARK  239  A    between atoms: _588  and  _589
REMARK  240  A    between atoms: _588  and  _591
REMARK  241  A    between atoms: _591  and  _592
REMARK  242  A    between atoms: _595  and  _597
REMARK  243  A    between atoms: _597  and  _598
REMARK  244  A    between atoms: _597  and  _600
REMARK  245  A    between atoms: _600  and  _601
REMARK  246  A    between atoms: _607  and  _609
REMARK  247  A    between atoms: _609  and  _610
REMARK  248  A    between atoms: _612  and  _614
REMARK  249  A    between atoms: _614  and  _615
REMARK  250  A    between atoms: _614  and  _617
REMARK  251  A    between atoms: _617  and  _618
REMARK                            x       y       z     vdW  Elec       q    Type
REMARK                         _______ _______ _______ _____ _____    ______ ____
ROOT
ATOM      1  CB  GLN A   1      25.443  21.544  29.257  0.00  0.00    +0.035 C 
ENDROOT
BRANCH   1   2
ATOM      2  CA  GLN A   1      26.718  22.220  28.742  0.00  0.00    +0.134 C 
BRANCH   2   3
ATOM      3  N   GLN A   1      26.537  23.653  28.597  0.00  0.00    -0.239 NA
ATOM      4  H   GLN A   1      25.765  23.998  27.991  0.00  0.00    +0.142 HD
ENDBRANCH   2   3
BRANCH   2   5
ATOM      5  C   GLN A   1      27.167  21.620  27.425  0.00  0.00    +0.224 C 
ATOM      6  O   GLN A   1      27.076  20.411  27.206  0.00  0.00    -0.287 OA
ENDBRANCH   2   5
ENDBRANCH   1   2
BRANCH   1   7
ATOM      7  CG  GLN A   1      25.267  21.817  30.745  0.00  0.00    +0.087 C 
BRANCH   7   8
ATOM      8  CD  GLN A   1      26.291  21.064  31.596  0.00  0.00    +0.219 C 
ATOM      9  NE2 GLN A   1      26.500  21.740  32.725  0.00  0.00    -0.329 N 
ATOM     10 HE21 GLN A   1      27.147  21.361  33.446  0.00  0.00    +0.145 HD
ATOM     11 HE22 GLN A   1      26.016  22.647  32.885  0.00  0.00    +0.145 HD
ATOM     12  OE1 GLN A   1      26.749  19.988  31.200  0.00  0.00    -0.275 OA
ENDBRANCH   7   8
ENDBRANCH   1   7
TORSDOF 5
REMARK  Name = ../refined-set-2016/1bxq/1bxq_pocket.pdb
REMARK  251 active torsions:
REMARK  status: ('A' for Active; 'I' for Inactive)
REMARK    1  A    between atoms: _1  and  _3
REMARK    2  A    between atoms: _3  and  _4
REMARK    3  A    between atoms: _3  and  _6
REMARK    4  A    between atoms: _6  and  _7
REMARK    5  A    between atoms: _10  and  _12
REMARK    6  A    between atoms: _12  and  _13
REMARK    7  A    between atoms: _16  and  _18
REMARK    8  A    between atoms: _18  and  _19
REMARK    9  A    between atoms: _18  and  _21
REMARK   10  A    between atoms: _21  and  _22
REMARK   11  A    between atoms: _27  and  _29
REMARK   12  A    between atoms: _29  and  _30
REMARK   13  A    between atoms: _29  and  _32
REMARK   14  A    between atoms: _32  and  _33
REMARK   15  A    between atoms: _36  and  _38
REMARK   16  A    between atoms: _38  and  _39
REMARK   17  A    between atoms: _38  and  _41
REMARK   18  A    between atoms: _41  and  _42
REMARK   19  A    between atoms: _42  and  _43
REMARK   20  A    between atoms: _46  and  _48
REMARK   21  A    between atoms: _48  and  _49
REMARK   22  A    between atoms: _48  and  _51
REMARK   23  A    between atoms: _51  and  _52
REMARK   24  A    between atoms: _52  and  _53
REMARK   25  A    between atoms: _56  and  _58
REMARK   26  A    between atoms: _58  and  _59
REMARK   27  A    between atoms: _58  and  _61
REMARK   28  A    between atoms: _61  and  _62
REMARK   29  A    between atoms: _67  and  _68
REMARK   30  A    between atoms: _70  and  _72
REMARK   31  A    between atoms: _72  and  _73
REMARK   32  A    between atoms: _72  and  _75
REMARK   33  A    between atoms: _75  and  _76
REMARK   34  A    between atoms: _81  and  _83
REMARK   35  A    between atoms: _83  and  _84
REMARK   36  A    between atoms: _83  and  _86
REMARK   37  A    between atoms: _86  and  _87
REMARK   38  A    between atoms: _93  and  _95
REMARK   39  A    between atoms: _95  and  _96
REMARK   40  A    between atoms: _95  and  _98
REMARK   41  A    between atoms: _98  and  _99
REMARK   42  A    between atoms: _102  and  _104
REMARK   43  A    between atoms: _104  and  _105
REMARK   44  A    between atoms: _104  and  _107
REMARK   45  A    between atoms: _107  and  _108
REMARK   46  A    between atoms: _111  and  _113
REMARK   47  A    between atoms: _113  and  _114
REMARK   48  A    between atoms: _116  and  _118
REMARK   49  A    between atoms: _118  and  _119
REMARK   50  A    between atoms: _118  and  _121
REMARK   51  A    between atoms: _121  and  _122
REMARK   52  A    between atoms: _124  and  _126
REMARK   53  A    between atoms: _126  and  _127
REMARK   54  A    between atoms: _130  and  _132
REMARK   55  A    between atoms: _132  and  _133
REMARK   56  A    between atoms: _132  and  _135
REMARK   57  A    between atoms: _135  and  _136
REMARK   58  A    between atoms: _139  and  _141
REMARK   59  A    between atoms: _141  and  _142
REMARK   60  A    between atoms: _141  and  _144
REMARK   61  A    between atoms: _144  and  _145
REMARK   62  A    between atoms: _155  and  _157
REMARK   63  A    between atoms: _157  and  _158
REMARK   64  A    between atoms: _157  and  _160
REMARK   65  A    between atoms: _160  and  _161
REMARK   66  A    between atoms: _164  and  _166
REMARK   67  A    between atoms: _166  and  _167
REMARK   68  A    between atoms: _166  and  _169
REMARK   69  A    between atoms: _169  and  _170
REMARK   70  A    between atoms: _172  and  _174
REMARK   71  A    between atoms: _174  and  _175
REMARK   72  A    between atoms: _174  and  _177
REMARK   73  A    between atoms: _177  and  _178
REMARK   74  A    between atoms: _183  and  _184
REMARK   75  A    between atoms: _186  and  _188
REMARK   76  A    between atoms: _188  and  _189
REMARK   77  A    between atoms: _191  and  _193
REMARK   78  A    between atoms: _193  and  _194
REMARK   79  A    between atoms: _193  and  _196
REMARK   80  A    between atoms: _196  and  _197
REMARK   81  A    between atoms: _200  and  _202
REMARK   82  A    between atoms: _202  and  _203
REMARK   83  A    between atoms: _205  and  _207
REMARK   84  A    between atoms: _207  and  _208
REMARK   85  A    between atoms: _207  and  _210
REMARK   86  A    between atoms: _210  and  _211
REMARK   87  A    between atoms: _213  and  _215
REMARK   88  A    between atoms: _215  and  _216
REMARK   89  A    between atoms: _215  and  _218
REMARK   90  A    between atoms: _218  and  _219
REMARK   91  A    between atoms: _221  and  _223
REMARK   92  A    between atoms: _223  and  _224
REMARK   93  A    between atoms: _223  and  _226
REMARK   94  A    between atoms: _226  and  _227
REMARK   95  A    between atoms: _229  and  _231
REMARK   96  A    between atoms: _231  and  _232
REMARK   97  A    between atoms: _231  and  _234
REMARK   98  A    between atoms: _234  and  _235
REMARK   99  A    between atoms: _235  and  _236
REMARK  100  A    between atoms: _241  and  _243
REMARK  101  A    between atoms: _243  and  _244
REMARK  102  A    between atoms: _243  and  _246
REMARK  103  A    between atoms: _246  and  _247
REMARK  104  A    between atoms: _253  and  _255
REMARK  105  A    between atoms: _255  and  _256
REMARK  106  A    between atoms: _255  and  _258
REMARK  107  A    between atoms: _258  and  _259
REMARK  108  A    between atoms: _262  and  _264
REMARK  109  A    between atoms: _264  and  _265
REMARK  110  A    between atoms: _264  and  _267
REMARK  111  A    between atoms: _267  and  _268
REMARK  112  A    between atoms: _273  and  _275
REMARK  113  A    between atoms: _275  and  _276
REMARK  114  A    between atoms: _275  and  _278
REMARK  115  A    between atoms: _278  and  _279
REMARK  116  A    between atoms: _284  and  _286
REMARK  117  A    between atoms: _286  and  _287
REMARK  118  A    between atoms: _289  and  _291
REMARK  119  A    between atoms: _291  and  _292
REMARK  120  A    between atoms: _291  and  _294
REMARK  121  A    between atoms: _294  and  _295
REMARK  122  A    between atoms: _298  and  _300
REMARK  123  A    between atoms: _300  and  _301
REMARK  124  A    between atoms: _300  and  _303
REMARK  125  A    between atoms: _303  and  _304
REMARK  126  A    between atoms: _307  and  _309
REMARK  127  A    between atoms: _309  and  _310
REMARK  128  A    between atoms: _312  and  _314
REMARK  129  A    between atoms: _314  and  _315
REMARK  130  A    between atoms: _314  and  _317
REMARK  131  A    between atoms: _317  and  _318
REMARK  132  A    between atoms: _321  and  _323
REMARK  133  A    between atoms: _323  and  _324
REMARK  134  A    between atoms: _327  and  _329
REMARK  135  A    between atoms: _329  and  _330
REMARK  136  A    between atoms: _329  and  _332
REMARK  137  A    between atoms: _332  and  _333
REMARK  138  A    between atoms: _336  and  _338
REMARK  139  A    between atoms: _338  and  _339
REMARK  140  A    between atoms: _338  and  _341
REMARK  141  A    between atoms: _341  and  _342
REMARK  142  A    between atoms: _342  and  _343
REMARK  143  A    between atoms: _348  and  _350
REMARK  144  A    between atoms: _350  and  _351
REMARK  145  A    between atoms: _350  and  _353
REMARK  146  A    between atoms: _353  and  _354
REMARK  147  A    between atoms: _360  and  _362
REMARK  148  A    between atoms: _362  and  _363
REMARK  149  A    between atoms: _362  and  _365
REMARK  150  A    between atoms: _365  and  _366
REMARK  151  A    between atoms: _376  and  _378
REMARK  152  A    between atoms: _378  and  _379
REMARK  153  A    between atoms: _378  and  _381
REMARK  154  A    between atoms: _381  and  _382
REMARK  155  A    between atoms: _385  and  _387
REMARK  156  A    between atoms: _387  and  _388
REMARK  157  A    between atoms: _391  and  _393
REMARK  158  A    between atoms: _393  and  _394
REMARK  159  A    between atoms: _393  and  _396
REMARK  160  A    between atoms: _396  and  _397
REMARK  161  A    between atoms: _400  and  _402
REMARK  162  A    between atoms: _402  and  _403
REMARK  163  A    between atoms: _402  and  _405
REMARK  164  A    between atoms: _405  and  _406
REMARK  165  A    between atoms: _409  and  _411
REMARK  166  A    between atoms: _411  and  _412
REMARK  167  A    between atoms: _414  and  _416
REMARK  168  A    between atoms: _416  and  _417
REMARK  169  A    between atoms: _416  and  _419
REMARK  170  A    between atoms: _419  and  _420
REMARK  171  A    between atoms: _423  and  _425
REMARK  172  A    between atoms: _425  and  _426
REMARK  173  A    between atoms: _425  and  _428
REMARK  174  A    between atoms: _428  and  _429
REMARK  175  A    between atoms: _432  and  _434
REMARK  176  A    between atoms: _434  and  _435
REMARK  177  A    between atoms: _434  and  _437
REMARK  178  A    between atoms: _437  and  _438
REMARK  179  A    between atoms: _441  and  _443
REMARK  180  A    between atoms: _443  and  _444
REMARK  181  A    between atoms: _443  and  _446
REMARK  182  A    between atoms: _446  and  _447
REMARK  183  A    between atoms: _450  and  _452
REMARK  184  A    between atoms: _452  and  _453
REMARK  185  A    between atoms: _452  and  _455
REMARK  186  A    between atoms: _455  and  _456
REMARK  187  A    between atoms: _459  and  _461
REMARK  188  A    between atoms: _461  and  _462
REMARK  189  A    between atoms: _465  and  _467
REMARK  190  A    between atoms: _467  and  _468
REMARK  191  A    between atoms: _470  and  _472
REMARK  192  A    between atoms: _472  and  _473
REMARK  193  A    between atoms: _475  and  _477
REMARK  194  A    between atoms: _477  and  _478
REMARK  195  A    between atoms: _477  and  _480
REMARK  196  A    between atoms: _480  and  _481
REMARK  197  A    between atoms: _486  and  _487
REMARK  198  A    between atoms: _490  and  _491
REMARK  199  A    between atoms: _496  and  _498
REMARK  200  A    between atoms: _498  and  _499
REMARK  201  A    between atoms: _498  and  _501
REMARK  202  A    between atoms: _501  and  _502
REMARK  203  A    between atoms: _504  and  _506
REMARK  204  A    between atoms: _506  and  _507
REMARK  205  A    between atoms: _506  and  _509
REMARK  206  A    between atoms: _509  and  _510
REMARK  207  A    between atoms: _513  and  _515
REMARK  208  A    between atoms: _515  and  _516
REMARK  209  A    between atoms: _518  and  _520
REMARK  210  A    between atoms: _520  and  _521
REMARK  211  A    between atoms: _520  and  _523
REMARK  212  A    between atoms: _523  and  _524
REMARK  213  A    between atoms: _524  and  _525
REMARK  214  A    between atoms: _530  and  _532
REMARK  215  A    between atoms: _532  and  _533
REMARK  216  A    between atoms: _532  and  _535
REMARK  217  A    between atoms: _535  and  _536
REMARK  218  A    between atoms: _538  and  _540
REMARK  219  A    between atoms: _540  and  _541
REMARK  220  A    between atoms: _540  and  _543
REMARK  221  A    between atoms: _543  and  _544
REMARK  222  A    between atoms: _549  and  _551
REMARK  223  A    between atoms: _551  and  _552
REMARK  224  A    between atoms: _551  and  _554
REMARK  225  A    between atoms: _554  and  _555
REMARK  226  A    between atoms: _557  and  _559
REMARK  227  A    between atoms: _559  and  _560
REMARK  228  A    between atoms: _559  and  _562
REMARK  229  A    between atoms: _562  and  _563
REMARK  230  A    between atoms: _566  and  _568
REMARK  231  A    between atoms: _568  and  _569
REMARK  232  A    between atoms: _568  and  _571
REMARK  233  A    between atoms: _571  and  _572
REMARK  234  A    between atoms: _578  and  _580
REMARK  235  A    between atoms: _580  and  _581
REMARK  236  A    between atoms: _580  and  _583
REMARK  237  A    between atoms: _583  and  _584
REMARK  238  A    between atoms: _586  and  _588
REMARK  239  A    between atoms: _588  and  _589
REMARK  240  A    between atoms: _588  and  _591
REMARK  241  A    between atoms: _591  and  _592
REMARK  242  A    between atoms: _595  and  _597
REMARK  243  A    between atoms: _597  and  _598
REMARK  244  A    between atoms: _597  and  _600
REMARK  245  A    between atoms: _600  and  _601
REMARK  246  A    between atoms: _607  and  _609
REMARK  247  A    between atoms: _609  and  _610
REMARK  248  A    between atoms: _612  and  _614
REMARK  249  A    between atoms: _614  and  _615
REMARK  250  A    between atoms: _614  and  _617
REMARK  251  A    between atoms: _617  and  _618
REMARK                            x       y       z     vdW  Elec       q    Type
REMARK                         _______ _______ _______ _____ _____    ______ ____
ROOT
ATOM      1  C   PHE A   1      24.323  22.695  22.798  0.00  0.00    +0.239 C 
ATOM      2  O   PHE A   1      24.464  23.818  23.260  0.00  0.00    -0.274 OA
ATOM      3  N   TRP A   2      23.639  22.456  21.674  0.00  0.00    -0.298 N 
ATOM      4  H   TRP A   2      23.665  21.498  21.271  0.00  0.00    +0.150 HD
ENDROOT
BRANCH   1   5
ATOM      5  CA  PHE A   1      24.842  21.456  23.503  0.00  0.00    +0.149 C 
BRANCH   5   6
ATOM      6  N   PHE A   1      25.887  21.785  24.478  0.00  0.00    -0.238 NA
ATOM      7  H   PHE A   1      25.621  22.132  25.422  0.00  0.00    +0.142 HD
ENDBRANCH   5   6
BRANCH   5   8
ATOM      8  CB  PHE A   1      23.634  20.796  24.169  0.00  0.00    +0.053 C 
BRANCH   8   9
ATOM      9  CG  PHE A   1      23.967  19.521  24.911  0.00  0.00    -0.020 A 
ATOM     10  CD2 PHE A   1      23.709  19.454  26.266  0.00  0.00    -0.004 A 
ATOM     11  CE2 PHE A   1      23.976  18.300  26.968  0.00  0.00    -0.000 A 
ATOM     12  CZ  PHE A   1      24.503  17.210  26.334  0.00  0.00    -0.000 A 
ATOM     13  CE1 PHE A   1      24.767  17.256  24.973  0.00  0.00    -0.000 A 
ATOM     14  CD1 PHE A   1      24.500  18.413  24.269  0.00  0.00    -0.004 A 
ENDBRANCH   8   9
ENDBRANCH   5   8
ENDBRANCH   1   5
BRANCH   3  15
ATOM     15  CA  TRP A   2      22.856  23.483  20.986  0.00  0.00    +0.141 C 
BRANCH  15  16
ATOM     16  C   TRP A   2      21.505  23.568  21.694  0.00  0.00    +0.227 C 
ATOM     17  O   TRP A   2      20.466  23.110  21.220  0.00  0.00    -0.286 OA
ENDBRANCH  15  16
BRANCH  15  18
ATOM     18  CB  TRP A   2      22.800  23.117  19.516  0.00  0.00    +0.056 C 
BRANCH  18  19
ATOM     19  CG  TRP A   2      24.065  23.266  18.767  0.00  0.00    -0.002 A 
ATOM     20  CD1 TRP A   2      24.957  22.263  18.501  0.00  0.00    +0.068 A 
ATOM     21  NE1 TRP A   2      26.004  22.762  17.790  0.00  0.00    -0.352 N 
ATOM     22  CE2 TRP A   2      25.822  24.102  17.567  0.00  0.00    +0.056 A 
ATOM     23  CZ2 TRP A   2      26.621  25.031  16.888  0.00  0.00    +0.017 A 
ATOM     24  CH2 TRP A   2      26.162  26.308  16.838  0.00  0.00    +0.001 A 
ATOM     25  CZ3 TRP A   2      24.961  26.697  17.425  0.00  0.00    +0.000 A 
ATOM     26  CE3 TRP A   2      24.175  25.783  18.093  0.00  0.00    +0.001 A 
ATOM     27  HE1 TRP A   2      26.822  22.208  17.464  0.00  0.00    +0.166 HD
ATOM     28  CD2 TRP A   2      24.602  24.453  18.172  0.00  0.00    +0.013 A 
ENDBRANCH  18  19
ENDBRANCH  15  18
ENDBRANCH   3  15
TORSDOF 8
REMARK  Name = ../refined-set-2016/1bxq/1bxq_pocket.pdb
REMARK  251 active torsions:
REMARK  status: ('A' for Active; 'I' for Inactive)
REMARK    1  A    between atoms: _1  and  _3
REMARK    2  A    between atoms: _3  and  _4
REMARK    3  A    between atoms: _3  and  _6
REMARK    4  A    between atoms: _6  and  _7
REMARK    5  A    between atoms: _10  and  _12
REMARK    6  A    between atoms: _12  and  _13
REMARK    7  A    between atoms: _16  and  _18
REMARK    8  A    between atoms: _18  and  _19
REMARK    9  A    between atoms: _18  and  _21
REMARK   10  A    between atoms: _21  and  _22
REMARK   11  A    between atoms: _27  and  _29
REMARK   12  A    between atoms: _29  and  _30
REMARK   13  A    between atoms: _29  and  _32
REMARK   14  A    between atoms: _32  and  _33
REMARK   15  A    between atoms: _36  and  _38
REMARK   16  A    between atoms: _38  and  _39
REMARK   17  A    between atoms: _38  and  _41
REMARK   18  A    between atoms: _41  and  _42
REMARK   19  A    between atoms: _42  and  _43
REMARK   20  A    between atoms: _46  and  _48
REMARK   21  A    between atoms: _48  and  _49
REMARK   22  A    between atoms: _48  and  _51
REMARK   23  A    between atoms: _51  and  _52
REMARK   24  A    between atoms: _52  and  _53
REMARK   25  A    between atoms: _56  and  _58
REMARK   26  A    between atoms: _58  and  _59
REMARK   27  A    between atoms: _58  and  _61
REMARK   28  A    between atoms: _61  and  _62
REMARK   29  A    between atoms: _67  and  _68
REMARK   30  A    between atoms: _70  and  _72
REMARK   31  A    between atoms: _72  and  _73
REMARK   32  A    between atoms: _72  and  _75
REMARK   33  A    between atoms: _75  and  _76
REMARK   34  A    between atoms: _81  and  _83
REMARK   35  A    between atoms: _83  and  _84
REMARK   36  A    between atoms: _83  and  _86
REMARK   37  A    between atoms: _86  and  _87
REMARK   38  A    between atoms: _93  and  _95
REMARK   39  A    between atoms: _95  and  _96
REMARK   40  A    between atoms: _95  and  _98
REMARK   41  A    between atoms: _98  and  _99
REMARK   42  A    between atoms: _102  and  _104
REMARK   43  A    between atoms: _104  and  _105
REMARK   44  A    between atoms: _104  and  _107
REMARK   45  A    between atoms: _107  and  _108
REMARK   46  A    between atoms: _111  and  _113
REMARK   47  A    between atoms: _113  and  _114
REMARK   48  A    between atoms: _116  and  _118
REMARK   49  A    between atoms: _118  and  _119
REMARK   50  A    between atoms: _118  and  _121
REMARK   51  A    between atoms: _121  and  _122
REMARK   52  A    between atoms: _124  and  _126
REMARK   53  A    between atoms: _126  and  _127
REMARK   54  A    between atoms: _130  and  _132
REMARK   55  A    between atoms: _132  and  _133
REMARK   56  A    between atoms: _132  and  _135
REMARK   57  A    between atoms: _135  and  _136
REMARK   58  A    between atoms: _139  and  _141
REMARK   59  A    between atoms: _141  and  _142
REMARK   60  A    between atoms: _141  and  _144
REMARK   61  A    between atoms: _144  and  _145
REMARK   62  A    between atoms: _155  and  _157
REMARK   63  A    between atoms: _157  and  _158
REMARK   64  A    between atoms: _157  and  _160
REMARK   65  A    between atoms: _160  and  _161
REMARK   66  A    between atoms: _164  and  _166
REMARK   67  A    between atoms: _166  and  _167
REMARK   68  A    between atoms: _166  and  _169
REMARK   69  A    between atoms: _169  and  _170
REMARK   70  A    between atoms: _172  and  _174
REMARK   71  A    between atoms: _174  and  _175
REMARK   72  A    between atoms: _174  and  _177
REMARK   73  A    between atoms: _177  and  _178
REMARK   74  A    between atoms: _183  and  _184
REMARK   75  A    between atoms: _186  and  _188
REMARK   76  A    between atoms: _188  and  _189
REMARK   77  A    between atoms: _191  and  _193
REMARK   78  A    between atoms: _193  and  _194
REMARK   79  A    between atoms: _193  and  _196
REMARK   80  A    between atoms: _196  and  _197
REMARK   81  A    between atoms: _200  and  _202
REMARK   82  A    between atoms: _202  and  _203
REMARK   83  A    between atoms: _205  and  _207
REMARK   84  A    between atoms: _207  and  _208
REMARK   85  A    between atoms: _207  and  _210
REMARK   86  A    between atoms: _210  and  _211
REMARK   87  A    between atoms: _213  and  _215
REMARK   88  A    between atoms: _215  and  _216
REMARK   89  A    between atoms: _215  and  _218
REMARK   90  A    between atoms: _218  and  _219
REMARK   91  A    between atoms: _221  and  _223
REMARK   92  A    between atoms: _223  and  _224
REMARK   93  A    between atoms: _223  and  _226
REMARK   94  A    between atoms: _226  and  _227
REMARK   95  A    between atoms: _229  and  _231
REMARK   96  A    between atoms: _231  and  _232
REMARK   97  A    between atoms: _231  and  _234
REMARK   98  A    between atoms: _234  and  _235
REMARK   99  A    between atoms: _235  and  _236
REMARK  100  A    between atoms: _241  and  _243
REMARK  101  A    between atoms: _243  and  _244
REMARK  102  A    between atoms: _243  and  _246
REMARK  103  A    between atoms: _246  and  _247
REMARK  104  A    between atoms: _253  and  _255
REMARK  105  A    between atoms: _255  and  _256
REMARK  106  A    between atoms: _255  and  _258
REMARK  107  A    between atoms: _258  and  _259
REMARK  108  A    between atoms: _262  and  _264
REMARK  109  A    between atoms: _264  and  _265
REMARK  110  A    between atoms: _264  and  _267
REMARK  111  A    between atoms: _267  and  _268
REMARK  112  A    between atoms: _273  and  _275
REMARK  113  A    between atoms: _275  and  _276
REMARK  114  A    between atoms: _275  and  _278
REMARK  115  A    between atoms: _278  and  _279
REMARK  116  A    between atoms: _284  and  _286
REMARK  117  A    between atoms: _286  and  _287
REMARK  118  A    between atoms: _289  and  _291
REMARK  119  A    between atoms: _291  and  _292
REMARK  120  A    between atoms: _291  and  _294
REMARK  121  A    between atoms: _294  and  _295
REMARK  122  A    between atoms: _298  and  _300
REMARK  123  A    between atoms: _300  and  _301
REMARK  124  A    between atoms: _300  and  _303
REMARK  125  A    between atoms: _303  and  _304
REMARK  126  A    between atoms: _307  and  _309
REMARK  127  A    between atoms: _309  and  _310
REMARK  128  A    between atoms: _312  and  _314
REMARK  129  A    between atoms: _314  and  _315
REMARK  130  A    between atoms: _314  and  _317
REMARK  131  A    between atoms: _317  and  _318
REMARK  132  A    between atoms: _321  and  _323
REMARK  133  A    between atoms: _323  and  _324
REMARK  134  A    between atoms: _327  and  _329
REMARK  135  A    between atoms: _329  and  _330
REMARK  136  A    between atoms: _329  and  _332
REMARK  137  A    between atoms: _332  and  _333
REMARK  138  A    between atoms: _336  and  _338
REMARK  139  A    between atoms: _338  and  _339
REMARK  140  A    between atoms: _338  and  _341
REMARK  141  A    between atoms: _341  and  _342
REMARK  142  A    between atoms: _342  and  _343
REMARK  143  A    between atoms: _348  and  _350
REMARK  144  A    between atoms: _350  and  _351
REMARK  145  A    between atoms: _350  and  _353
REMARK  146  A    between atoms: _353  and  _354
REMARK  147  A    between atoms: _360  and  _362
REMARK  148  A    between atoms: _362  and  _363
REMARK  149  A    between atoms: _362  and  _365
REMARK  150  A    between atoms: _365  and  _366
REMARK  151  A    between atoms: _376  and  _378
REMARK  152  A    between atoms: _378  and  _379
REMARK  153  A    between atoms: _378  and  _381
REMARK  154  A    between atoms: _381  and  _382
REMARK  155  A    between atoms: _385  and  _387
REMARK  156  A    between atoms: _387  and  _388
REMARK  157  A    between atoms: _391  and  _393
REMARK  158  A    between atoms: _393  and  _394
REMARK  159  A    between atoms: _393  and  _396
REMARK  160  A    between atoms: _396  and  _397
REMARK  161  A    between atoms: _400  and  _402
REMARK  162  A    between atoms: _402  and  _403
REMARK  163  A    between atoms: _402  and  _405
REMARK  164  A    between atoms: _405  and  _406
REMARK  165  A    between atoms: _409  and  _411
REMARK  166  A    between atoms: _411  and  _412
REMARK  167  A    between atoms: _414  and  _416
REMARK  168  A    between atoms: _416  and  _417
REMARK  169  A    between atoms: _416  and  _419
REMARK  170  A    between atoms: _419  and  _420
REMARK  171  A    between atoms: _423  and  _425
REMARK  172  A    between atoms: _425  and  _426
REMARK  173  A    between atoms: _425  and  _428
REMARK  174  A    between atoms: _428  and  _429
REMARK  175  A    between atoms: _432  and  _434
REMARK  176  A    between atoms: _434  and  _435
REMARK  177  A    between atoms: _434  and  _437
REMARK  178  A    between atoms: _437  and  _438
REMARK  179  A    between atoms: _441  and  _443
REMARK  180  A    between atoms: _443  and  _444
REMARK  181  A    between atoms: _443  and  _446
REMARK  182  A    between atoms: _446  and  _447
REMARK  183  A    between atoms: _450  and  _452
REMARK  184  A    between atoms: _452  and  _453
REMARK  185  A    between atoms: _452  and  _455
REMARK  186  A    between atoms: _455  and  _456
REMARK  187  A    between atoms: _459  and  _461
REMARK  188  A    between atoms: _461  and  _462
REMARK  189  A    between atoms: _465  and  _467
REMARK  190  A    between atoms: _467  and  _468
REMARK  191  A    between atoms: _470  and  _472
REMARK  192  A    between atoms: _472  and  _473
REMARK  193  A    between atoms: _475  and  _477
REMARK  194  A    between atoms: _477  and  _478
REMARK  195  A    between atoms: _477  and  _480
REMARK  196  A    between atoms: _480  and  _481
REMARK  197  A    between atoms: _486  and  _487
REMARK  198  A    between atoms: _490  and  _491
REMARK  199  A    between atoms: _496  and  _498
REMARK  200  A    between atoms: _498  and  _499
REMARK  201  A    between atoms: _498  and  _501
REMARK  202  A    between atoms: _501  and  _502
REMARK  203  A    between atoms: _504  and  _506
REMARK  204  A    between atoms: _506  and  _507
REMARK  205  A    between atoms: _506  and  _509
REMARK  206  A    between atoms: _509  and  _510
REMARK  207  A    between atoms: _513  and  _515
REMARK  208  A    between atoms: _515  and  _516
REMARK  209  A    between atoms: _518  and  _520
REMARK  210  A    between atoms: _520  and  _521
REMARK  211  A    between atoms: _520  and  _523
REMARK  212  A    between atoms: _523  and  _524
REMARK  213  A    between atoms: _524  and  _525
REMARK  214  A    between atoms: _530  and  _532
REMARK  215  A    between atoms: _532  and  _533
REMARK  216  A    between atoms: _532  and  _535
REMARK  217  A    between atoms: _535  and  _536
REMARK  218  A    between atoms: _538  and  _540
REMARK  219  A    between atoms: _540  and  _541
REMARK  220  A    between atoms: _540  and  _543
REMARK  221  A    between atoms: _543  and  _544
REMARK  222  A    between atoms: _549  and  _551
REMARK  223  A    between atoms: _551  and  _552
REMARK  224  A    between atoms: _551  and  _554
REMARK  225  A    between atoms: _554  and  _555
REMARK  226  A    between atoms: _557  and  _559
REMARK  227  A    between atoms: _559  and  _560
REMARK  228  A    between atoms: _559  and  _562
REMARK  229  A    between atoms: _562  and  _563
REMARK  230  A    between atoms: _566  and  _568
REMARK  231  A    between atoms: _568  and  _569
REMARK  232  A    between atoms: _568  and  _571
REMARK  233  A    between atoms: _571  and  _572
REMARK  234  A    between atoms: _578  and  _580
REMARK  235  A    between atoms: _580  and  _581
REMARK  236  A    between atoms: _580  and  _583
REMARK  237  A    between atoms: _583  and  _584
REMARK  238  A    between atoms: _586  and  _588
REMARK  239  A    between atoms: _588  and  _589
REMARK  240  A    between atoms: _588  and  _591
REMARK  241  A    between atoms: _591  and  _592
REMARK  242  A    between atoms: _595  and  _597
REMARK  243  A    between atoms: _597  and  _598
REMARK  244  A    between atoms: _597  and  _600
REMARK  245  A    between atoms: _600  and  _601
REMARK  246  A    between atoms: _607  and  _609
REMARK  247  A    between atoms: _609  and  _610
REMARK  248  A    between atoms: _612  and  _614
REMARK  249  A    between atoms: _614  and  _615
REMARK  250  A    between atoms: _614  and  _617
REMARK  251  A    between atoms: _617  and  _618
REMARK                            x       y       z     vdW  Elec       q    Type
REMARK                         _______ _______ _______ _____ _____    ______ ____
ROOT
ATOM      1  CA  THR A   6      18.700  11.114  18.390  0.00  0.00    +0.176 C 
ENDROOT
BRANCH   1   2
ATOM      2  C   THR A   6      17.545  11.005  17.414  0.00  0.00    +0.243 C 
ATOM      3  N   THR A   7      17.006   9.799  17.315  0.00  0.00    -0.295 N 
ATOM      4  H   THR A   7      17.349   9.059  17.960  0.00  0.00    +0.150 HD
ATOM      5  O   THR A   6      17.144  11.935  16.734  0.00  0.00    -0.273 OA
BRANCH   3   6
ATOM      6  CA  THR A   7      15.970   9.444  16.368  0.00  0.00    +0.176 C 
BRANCH   6   7
ATOM      7  C   THR A   7      14.673  10.177  16.605  0.00  0.00    +0.243 C 
ATOM      8  N   LEU A   8      14.248  10.234  17.845  0.00  0.00    -0.297 N 
ATOM      9  H   LEU A   8      14.896   9.946  18.606  0.00  0.00    +0.150 HD
ATOM     10  O   THR A   7      14.058  10.682  15.654  0.00  0.00    -0.273 OA
BRANCH   8  11
ATOM     11  CA  LEU A   8      12.912  10.681  18.203  0.00  0.00    +0.149 C 
BRANCH  11  12
ATOM     12  C   LEU A   8      12.919  12.063  18.843  0.00  0.00    +0.241 C 
ATOM     13  O   LEU A   8      13.958  12.682  19.095  0.00  0.00    -0.273 OA
ATOM     14  N   LEU A   9      11.733  12.568  19.083  0.00  0.00    -0.297 N 
ATOM     15  H   LEU A   9      10.916  12.056  18.694  0.00  0.00    +0.150 HD
BRANCH  14  16
ATOM     16  CA  LEU A   9      11.453  13.775  19.840  0.00  0.00    +0.149 C 
BRANCH  16  17
ATOM     17  C   LEU A   9      11.181  13.382  21.298  0.00  0.00    +0.241 C 
ATOM     18  N   LEU A  10      12.155  13.667  22.167  0.00  0.00    -0.298 N 
ATOM     19  H   LEU A  10      12.988  14.216  21.874  0.00  0.00    +0.150 HD
ATOM     20  O   LEU A   9      10.116  12.810  21.581  0.00  0.00    -0.273 OA
BRANCH  18  21
ATOM     21  CA  LEU A  10      12.017  13.180  23.559  0.00  0.00    +0.137 C 
BRANCH  21  22
ATOM     22  C   LEU A  10      11.620  14.307  24.480  0.00  0.00    +0.227 C 
ATOM     23  O   LEU A  10      12.376  15.279  24.582  0.00  0.00    -0.286 OA
ENDBRANCH  21  22
BRANCH  21  24
ATOM     24  CB  LEU A  10      13.321  12.532  24.055  0.00  0.00    +0.028 C 
BRANCH  24  25
ATOM     25  CG  LEU A  10      13.801  11.401  23.151  0.00  0.00    +0.002 C 
ATOM     26  CD2 LEU A  10      15.104  10.884  23.738  0.00  0.00    +0.000 C 
ATOM     27  CD1 LEU A  10      12.784  10.293  22.987  0.00  0.00    +0.000 C 
ENDBRANCH  24  25
ENDBRANCH  21  24
ENDBRANCH  18  21
ENDBRANCH  16  17
BRANCH  16  28
ATOM     28  CB  LEU A   9      10.284  14.551  19.216  0.00  0.00    +0.029 C 
BRANCH  28  29
ATOM     29  CG  LEU A   9       9.893  15.830  19.937  0.00  0.00    +0.002 C 
ATOM     30  CD2 LEU A   9      11.053  16.777  20.185  0.00  0.00    +0.000 C 
ATOM     31  CD1 LEU A   9       8.804  16.509  19.108  0.00  0.00    +0.000 C 
ENDBRANCH  28  29
ENDBRANCH  16  28
ENDBRANCH  14  16
ENDBRANCH  11  12
BRANCH  11  32
ATOM     32  CB  LEU A   8      12.280   9.620  19.112  0.00  0.00    +0.029 C 
BRANCH  32  33
ATOM     33  CG  LEU A   8      12.227   8.206  18.547  0.00  0.00    +0.002 C 
ATOM     34  CD2 LEU A   8      11.592   7.322  19.597  0.00  0.00    +0.000 C 
ATOM     35  CD1 LEU A   8      11.474   8.172  17.205  0.00  0.00    +0.000 C 
ENDBRANCH  32  33
ENDBRANCH  11  32
ENDBRANCH   8  11
ENDBRANCH   6   7
BRANCH   6  36
ATOM     36  CB  THR A   7      15.703   7.921  16.443  0.00  0.00    +0.137 C 
ATOM     37  CG2 THR A   7      14.672   7.509  15.408  0.00  0.00    +0.034 C 
BRANCH  36  38
ATOM     38  OG1 THR A   7      16.902   7.261  16.144  0.00  0.00    -0.382 OA
ATOM     39  HG1 THR A   7      17.199   7.514  15.234  0.00  0.00    +0.210 HD
ENDBRANCH  36  38
ENDBRANCH   6  36
ENDBRANCH   3   6
ENDBRANCH   1   2
BRANCH   1  42
ATOM     40  C   GLY A   5      20.968  11.245  17.476  0.00  0.00    +0.243 C 
ATOM     41  O   GLY A   5      21.232  10.092  17.899  0.00  0.00    -0.273 OA
ATOM     42  N   THR A   6      19.793  11.788  17.704  0.00  0.00    -0.295 N 
ATOM     43  H   THR A   6      19.634  12.761  17.373  0.00  0.00    +0.150 HD
BRANCH  40  44
ATOM     44  CA  GLY A   5      22.013  12.007  16.716  0.00  0.00    +0.176 C 
BRANCH  44  46
ATOM     45  C   THR A   4      20.884  13.667  15.285  0.00  0.00    +0.243 C 
ATOM     46  N   GLY A   5      21.605  13.352  16.346  0.00  0.00    -0.295 N 
ATOM     47  H   GLY A   5      21.905  14.130  16.967  0.00  0.00    +0.150 HD
ATOM     48  O   THR A   4      20.459  12.832  14.467  0.00  0.00    -0.273 OA
BRANCH  45  49
ATOM     49  CA  THR A   4      20.588  15.127  14.973  0.00  0.00    +0.176 C 
BRANCH  49  52
ATOM     50  C   ASP A   3      19.975  15.824  17.238  0.00  0.00    +0.241 C 
ATOM     51  O   ASP A   3      19.141  14.937  17.318  0.00  0.00    -0.273 OA
ATOM     52  N   THR A   4      20.772  15.966  16.171  0.00  0.00    -0.295 N 
ATOM     53  H   THR A   4      21.530  16.677  16.188  0.00  0.00    +0.150 HD
BRANCH  50  54
ATOM     54  CA  ASP A   3      20.207  16.771  18.406  0.00  0.00    +0.160 C 
BRANCH  54  57
ATOM     55  C   ALA A   2      19.881  19.219  18.482  0.00  0.00    +0.241 C 
ATOM     56  O   ALA A   2      21.082  19.477  18.538  0.00  0.00    -0.273 OA
ATOM     57  N   ASP A   3      19.384  18.002  18.279  0.00  0.00    -0.297 N 
ATOM     58  H   ASP A   3      18.381  17.908  18.021  0.00  0.00    +0.150 HD
BRANCH  55  59
ATOM     59  CA  ALA A   2      18.894  20.361  18.707  0.00  0.00    +0.149 C 
ATOM     60  CB  ALA A   2      19.155  21.504  17.743  0.00  0.00    +0.031 C 
BRANCH  59  63
ATOM     61  C   ILE A   1      18.439  20.101  21.079  0.00  0.00    +0.238 C 
ATOM     62  O   ILE A   1      17.699  19.138  20.852  0.00  0.00    -0.274 OA
ATOM     63  N   ALA A   2      19.043  20.803  20.085  0.00  0.00    -0.297 N 
ATOM     64  H   ALA A   2      19.607  21.648  20.307  0.00  0.00    +0.150 HD
BRANCH  61  65
ATOM     65  CA  ILE A   1      18.737  20.604  22.479  0.00  0.00    +0.145 C 
BRANCH  65  66
ATOM     66  N   ILE A   1      17.542  20.539  23.312  0.00  0.00    -0.238 NA
ATOM     67  H   ILE A   1      17.075  19.626  23.484  0.00  0.00    +0.142 HD
ENDBRANCH  65  66
BRANCH  65  68
ATOM     68  CB  ILE A   1      19.888  19.805  23.086  0.00  0.00    +0.025 C 
ATOM     69  CG2 ILE A   1      20.215  20.344  24.474  0.00  0.00    +0.002 C 
BRANCH  68  70
ATOM     70  CG1 ILE A   1      19.634  18.303  23.175  0.00  0.00    +0.002 C 
ATOM     71  CD1 ILE A   1      20.855  17.467  23.486  0.00  0.00    +0.000 C 
ENDBRANCH  68  70
ENDBRANCH  65  68
ENDBRANCH  61  65
ENDBRANCH  59  63
ENDBRANCH  55  59
ENDBRANCH  54  57
BRANCH  54  72
ATOM     72  CB  ASP A   3      19.912  16.132  19.749  0.00  0.00    +0.143 C 
BRANCH  72  73
ATOM     73  CG  ASP A   3      20.694  14.874  19.983  0.00  0.00    +0.367 C 
ATOM     74  OD2 ASP A   3      20.340  14.213  20.979  0.00  0.00    -0.246 OA
ATOM     75  OD1 ASP A   3      21.643  14.552  19.201  0.00  0.00    -0.246 OA
ENDBRANCH  72  73
ENDBRANCH  54  72
ENDBRANCH  50  54
ENDBRANCH  49  52
BRANCH  49  76
ATOM     76  CB  THR A   4      21.482  15.557  13.799  0.00  0.00    +0.137 C 
ATOM     77  CG2 THR A   4      21.171  16.963  13.345  0.00  0.00    +0.034 C 
BRANCH  76  78
ATOM     78  OG1 THR A   4      22.854  15.563  14.244  0.00  0.00    -0.382 OA
ATOM     79  HG1 THR A   4      23.106  14.654  14.545  0.00  0.00    +0.210 HD
ENDBRANCH  76  78
ENDBRANCH  49  76
ENDBRANCH  45  49
ENDBRANCH  44  46
ENDBRANCH  40  44
ENDBRANCH   1  42
BRANCH   1  80
ATOM     80  CB  THR A   6      18.261  11.868  19.643  0.00  0.00    +0.137 C 
ATOM     81  CG2 THR A   6      16.995  11.315  20.263  0.00  0.00    +0.034 C 
BRANCH  80  82
ATOM     82  OG1 THR A   6      19.308  11.706  20.631  0.00  0.00    -0.382 OA
ATOM     83  HG1 THR A   6      20.154  12.080  20.278  0.00  0.00    +0.210 HD
ENDBRANCH  80  82
ENDBRANCH   1  80
TORSDOF 36
REMARK  Name = ../refined-set-2016/1bxq/1bxq_pocket.pdb
REMARK  251 active torsions:
REMARK  status: ('A' for Active; 'I' for Inactive)
REMARK    1  A    between atoms: _1  and  _3
REMARK    2  A    between atoms: _3  and  _4
REMARK    3  A    between atoms: _3  and  _6
REMARK    4  A    between atoms: _6  and  _7
REMARK    5  A    between atoms: _10  and  _12
REMARK    6  A    between atoms: _12  and  _13
REMARK    7  A    between atoms: _16  and  _18
REMARK    8  A    between atoms: _18  and  _19
REMARK    9  A    between atoms: _18  and  _21
REMARK   10  A    between atoms: _21  and  _22
REMARK   11  A    between atoms: _27  and  _29
REMARK   12  A    between atoms: _29  and  _30
REMARK   13  A    between atoms: _29  and  _32
REMARK   14  A    between atoms: _32  and  _33
REMARK   15  A    between atoms: _36  and  _38
REMARK   16  A    between atoms: _38  and  _39
REMARK   17  A    between atoms: _38  and  _41
REMARK   18  A    between atoms: _41  and  _42
REMARK   19  A    between atoms: _42  and  _43
REMARK   20  A    between atoms: _46  and  _48
REMARK   21  A    between atoms: _48  and  _49
REMARK   22  A    between atoms: _48  and  _51
REMARK   23  A    between atoms: _51  and  _52
REMARK   24  A    between atoms: _52  and  _53
REMARK   25  A    between atoms: _56  and  _58
REMARK   26  A    between atoms: _58  and  _59
REMARK   27  A    between atoms: _58  and  _61
REMARK   28  A    between atoms: _61  and  _62
REMARK   29  A    between atoms: _67  and  _68
REMARK   30  A    between atoms: _70  and  _72
REMARK   31  A    between atoms: _72  and  _73
REMARK   32  A    between atoms: _72  and  _75
REMARK   33  A    between atoms: _75  and  _76
REMARK   34  A    between atoms: _81  and  _83
REMARK   35  A    between atoms: _83  and  _84
REMARK   36  A    between atoms: _83  and  _86
REMARK   37  A    between atoms: _86  and  _87
REMARK   38  A    between atoms: _93  and  _95
REMARK   39  A    between atoms: _95  and  _96
REMARK   40  A    between atoms: _95  and  _98
REMARK   41  A    between atoms: _98  and  _99
REMARK   42  A    between atoms: _102  and  _104
REMARK   43  A    between atoms: _104  and  _105
REMARK   44  A    between atoms: _104  and  _107
REMARK   45  A    between atoms: _107  and  _108
REMARK   46  A    between atoms: _111  and  _113
REMARK   47  A    between atoms: _113  and  _114
REMARK   48  A    between atoms: _116  and  _118
REMARK   49  A    between atoms: _118  and  _119
REMARK   50  A    between atoms: _118  and  _121
REMARK   51  A    between atoms: _121  and  _122
REMARK   52  A    between atoms: _124  and  _126
REMARK   53  A    between atoms: _126  and  _127
REMARK   54  A    between atoms: _130  and  _132
REMARK   55  A    between atoms: _132  and  _133
REMARK   56  A    between atoms: _132  and  _135
REMARK   57  A    between atoms: _135  and  _136
REMARK   58  A    between atoms: _139  and  _141
REMARK   59  A    between atoms: _141  and  _142
REMARK   60  A    between atoms: _141  and  _144
REMARK   61  A    between atoms: _144  and  _145
REMARK   62  A    between atoms: _155  and  _157
REMARK   63  A    between atoms: _157  and  _158
REMARK   64  A    between atoms: _157  and  _160
REMARK   65  A    between atoms: _160  and  _161
REMARK   66  A    between atoms: _164  and  _166
REMARK   67  A    between atoms: _166  and  _167
REMARK   68  A    between atoms: _166  and  _169
REMARK   69  A    between atoms: _169  and  _170
REMARK   70  A    between atoms: _172  and  _174
REMARK   71  A    between atoms: _174  and  _175
REMARK   72  A    between atoms: _174  and  _177
REMARK   73  A    between atoms: _177  and  _178
REMARK   74  A    between atoms: _183  and  _184
REMARK   75  A    between atoms: _186  and  _188
REMARK   76  A    between atoms: _188  and  _189
REMARK   77  A    between atoms: _191  and  _193
REMARK   78  A    between atoms: _193  and  _194
REMARK   79  A    between atoms: _193  and  _196
REMARK   80  A    between atoms: _196  and  _197
REMARK   81  A    between atoms: _200  and  _202
REMARK   82  A    between atoms: _202  and  _203
REMARK   83  A    between atoms: _205  and  _207
REMARK   84  A    between atoms: _207  and  _208
REMARK   85  A    between atoms: _207  and  _210
REMARK   86  A    between atoms: _210  and  _211
REMARK   87  A    between atoms: _213  and  _215
REMARK   88  A    between atoms: _215  and  _216
REMARK   89  A    between atoms: _215  and  _218
REMARK   90  A    between atoms: _218  and  _219
REMARK   91  A    between atoms: _221  and  _223
REMARK   92  A    between atoms: _223  and  _224
REMARK   93  A    between atoms: _223  and  _226
REMARK   94  A    between atoms: _226  and  _227
REMARK   95  A    between atoms: _229  and  _231
REMARK   96  A    between atoms: _231  and  _232
REMARK   97  A    between atoms: _231  and  _234
REMARK   98  A    between atoms: _234  and  _235
REMARK   99  A    between atoms: _235  and  _236
REMARK  100  A    between atoms: _241  and  _243
REMARK  101  A    between atoms: _243  and  _244
REMARK  102  A    between atoms: _243  and  _246
REMARK  103  A    between atoms: _246  and  _247
REMARK  104  A    between atoms: _253  and  _255
REMARK  105  A    between atoms: _255  and  _256
REMARK  106  A    between atoms: _255  and  _258
REMARK  107  A    between atoms: _258  and  _259
REMARK  108  A    between atoms: _262  and  _264
REMARK  109  A    between atoms: _264  and  _265
REMARK  110  A    between atoms: _264  and  _267
REMARK  111  A    between atoms: _267  and  _268
REMARK  112  A    between atoms: _273  and  _275
REMARK  113  A    between atoms: _275  and  _276
REMARK  114  A    between atoms: _275  and  _278
REMARK  115  A    between atoms: _278  and  _279
REMARK  116  A    between atoms: _284  and  _286
REMARK  117  A    between atoms: _286  and  _287
REMARK  118  A    between atoms: _289  and  _291
REMARK  119  A    between atoms: _291  and  _292
REMARK  120  A    between atoms: _291  and  _294
REMARK  121  A    between atoms: _294  and  _295
REMARK  122  A    between atoms: _298  and  _300
REMARK  123  A    between atoms: _300  and  _301
REMARK  124  A    between atoms: _300  and  _303
REMARK  125  A    between atoms: _303  and  _304
REMARK  126  A    between atoms: _307  and  _309
REMARK  127  A    between atoms: _309  and  _310
REMARK  128  A    between atoms: _312  and  _314
REMARK  129  A    between atoms: _314  and  _315
REMARK  130  A    between atoms: _314  and  _317
REMARK  131  A    between atoms: _317  and  _318
REMARK  132  A    between atoms: _321  and  _323
REMARK  133  A    between atoms: _323  and  _324
REMARK  134  A    between atoms: _327  and  _329
REMARK  135  A    between atoms: _329  and  _330
REMARK  136  A    between atoms: _329  and  _332
REMARK  137  A    between atoms: _332  and  _333
REMARK  138  A    between atoms: _336  and  _338
REMARK  139  A    between atoms: _338  and  _339
REMARK  140  A    between atoms: _338  and  _341
REMARK  141  A    between atoms: _341  and  _342
REMARK  142  A    between atoms: _342  and  _343
REMARK  143  A    between atoms: _348  and  _350
REMARK  144  A    between atoms: _350  and  _351
REMARK  145  A    between atoms: _350  and  _353
REMARK  146  A    between atoms: _353  and  _354
REMARK  147  A    between atoms: _360  and  _362
REMARK  148  A    between atoms: _362  and  _363
REMARK  149  A    between atoms: _362  and  _365
REMARK  150  A    between atoms: _365  and  _366
REMARK  151  A    between atoms: _376  and  _378
REMARK  152  A    between atoms: _378  and  _379
REMARK  153  A    between atoms: _378  and  _381
REMARK  154  A    between atoms: _381  and  _382
REMARK  155  A    between atoms: _385  and  _387
REMARK  156  A    between atoms: _387  and  _388
REMARK  157  A    between atoms: _391  and  _393
REMARK  158  A    between atoms: _393  and  _394
REMARK  159  A    between atoms: _393  and  _396
REMARK  160  A    between atoms: _396  and  _397
REMARK  161  A    between atoms: _400  and  _402
REMARK  162  A    between atoms: _402  and  _403
REMARK  163  A    between atoms: _402  and  _405
REMARK  164  A    between atoms: _405  and  _406
REMARK  165  A    between atoms: _409  and  _411
REMARK  166  A    between atoms: _411  and  _412
REMARK  167  A    between atoms: _414  and  _416
REMARK  168  A    between atoms: _416  and  _417
REMARK  169  A    between atoms: _416  and  _419
REMARK  170  A    between atoms: _419  and  _420
REMARK  171  A    between atoms: _423  and  _425
REMARK  172  A    between atoms: _425  and  _426
REMARK  173  A    between atoms: _425  and  _428
REMARK  174  A    between atoms: _428  and  _429
REMARK  175  A    between atoms: _432  and  _434
REMARK  176  A    between atoms: _434  and  _435
REMARK  177  A    between atoms: _434  and  _437
REMARK  178  A    between atoms: _437  and  _438
REMARK  179  A    between atoms: _441  and  _443
REMARK  180  A    between atoms: _443  and  _444
REMARK  181  A    between atoms: _443  and  _446
REMARK  182  A    between atoms: _446  and  _447
REMARK  183  A    between atoms: _450  and  _452
REMARK  184  A    between atoms: _452  and  _453
REMARK  185  A    between atoms: _452  and  _455
REMARK  186  A    between atoms: _455  and  _456
REMARK  187  A    between atoms: _459  and  _461
REMARK  188  A    between atoms: _461  and  _462
REMARK  189  A    between atoms: _465  and  _467
REMARK  190  A    between atoms: _467  and  _468
REMARK  191  A    between atoms: _470  and  _472
REMARK  192  A    between atoms: _472  and  _473
REMARK  193  A    between atoms: _475  and  _477
REMARK  194  A    between atoms: _477  and  _478
REMARK  195  A    between atoms: _477  and  _480
REMARK  196  A    between atoms: _480  and  _481
REMARK  197  A    between atoms: _486  and  _487
REMARK  198  A    between atoms: _490  and  _491
REMARK  199  A    between atoms: _496  and  _498
REMARK  200  A    between atoms: _498  and  _499
REMARK  201  A    between atoms: _498  and  _501
REMARK  202  A    between atoms: _501  and  _502
REMARK  203  A    between atoms: _504  and  _506
REMARK  204  A    between atoms: _506  and  _507
REMARK  205  A    between atoms: _506  and  _509
REMARK  206  A    between atoms: _509  and  _510
REMARK  207  A    between atoms: _513  and  _515
REMARK  208  A    between atoms: _515  and  _516
REMARK  209  A    between atoms: _518  and  _520
REMARK  210  A    between atoms: _520  and  _521
REMARK  211  A    between atoms: _520  and  _523
REMARK  212  A    between atoms: _523  and  _524
REMARK  213  A    between atoms: _524  and  _525
REMARK  214  A    between atoms: _530  and  _532
REMARK  215  A    between atoms: _532  and  _533
REMARK  216  A    between atoms: _532  and  _535
REMARK  217  A    between atoms: _535  and  _536
REMARK  218  A    between atoms: _538  and  _540
REMARK  219  A    between atoms: _540  and  _541
REMARK  220  A    between atoms: _540  and  _543
REMARK  221  A    between atoms: _543  and  _544
REMARK  222  A    between atoms: _549  and  _551
REMARK  223  A    between atoms: _551  and  _552
REMARK  224  A    between atoms: _551  and  _554
REMARK  225  A    between atoms: _554  and  _555
REMARK  226  A    between atoms: _557  and  _559
REMARK  227  A    between atoms: _559  and  _560
REMARK  228  A    between atoms: _559  and  _562
REMARK  229  A    between atoms: _562  and  _563
REMARK  230  A    between atoms: _566  and  _568
REMARK  231  A    between atoms: _568  and  _569
REMARK  232  A    between atoms: _568  and  _571
REMARK  233  A    between atoms: _571  and  _572
REMARK  234  A    between atoms: _578  and  _580
REMARK  235  A    between atoms: _580  and  _581
REMARK  236  A    between atoms: _580  and  _583
REMARK  237  A    between atoms: _583  and  _584
REMARK  238  A    between atoms: _586  and  _588
REMARK  239  A    between atoms: _588  and  _589
REMARK  240  A    between atoms: _588  and  _591
REMARK  241  A    between atoms: _591  and  _592
REMARK  242  A    between atoms: _595  and  _597
REMARK  243  A    between atoms: _597  and  _598
REMARK  244  A    between atoms: _597  and  _600
REMARK  245  A    between atoms: _600  and  _601
REMARK  246  A    between atoms: _607  and  _609
REMARK  247  A    between atoms: _609  and  _610
REMARK  248  A    between atoms: _612  and  _614
REMARK  249  A    between atoms: _614  and  _615
REMARK  250  A    between atoms: _614  and  _617
REMARK  251  A    between atoms: _617  and  _618
REMARK                            x       y       z     vdW  Elec       q    Type
REMARK                         _______ _______ _______ _____ _____    ______ ____
ROOT
ATOM      1  C   ALA A   1       9.625  -0.085  20.740  0.00  0.00    +0.238 C 
ATOM      2  N   GLY A   2       9.640   0.277  22.011  0.00  0.00    -0.296 N 
ATOM      3  H   GLY A   2       9.166  -0.286  22.746  0.00  0.00    +0.150 HD
ATOM      4  O   ALA A   1      10.240   0.600  19.913  0.00  0.00    -0.274 OA
ENDROOT
BRANCH   1   5
ATOM      5  CA  ALA A   1       8.875  -1.334  20.340  0.00  0.00    +0.145 C 
ATOM      6  CB  ALA A   1       7.488  -0.928  19.866  0.00  0.00    +0.028 C 
BRANCH   5   7
ATOM      7  N   ALA A   1       8.746  -2.285  21.423  0.00  0.00    -0.238 NA
ATOM      8  H   ALA A   1       8.000  -2.150  22.135  0.00  0.00    +0.142 HD
ENDBRANCH   5   7
ENDBRANCH   1   5
BRANCH   2   9
ATOM      9  CA  GLY A   2      10.357   1.507  22.329  0.00  0.00    +0.176 C 
BRANCH   9  10
ATOM     10  C   GLY A   2       9.510   2.575  22.970  0.00  0.00    +0.243 C 
ATOM     11  N   GLY A   3       8.238   2.289  23.267  0.00  0.00    -0.296 N 
ATOM     12  H   GLY A   3       7.847   1.344  23.080  0.00  0.00    +0.150 HD
ATOM     13  O   GLY A   2       9.947   3.692  23.227  0.00  0.00    -0.273 OA
BRANCH  11  14
ATOM     14  CA  GLY A   3       7.417   3.328  23.856  0.00  0.00    +0.163 C 
BRANCH  14  15
ATOM     15  C   GLY A   3       5.966   3.238  23.398  0.00  0.00    +0.229 C 
ATOM     16  O   GLY A   3       5.493   2.129  23.109  0.00  0.00    -0.286 OA
ENDBRANCH  14  15
ENDBRANCH  11  14
ENDBRANCH   9  10
ENDBRANCH   2   9
TORSDOF 6
REMARK  Name = ../refined-set-2016/1bxq/1bxq_pocket.pdb
REMARK  251 active torsions:
REMARK  status: ('A' for Active; 'I' for Inactive)
REMARK    1  A    between atoms: _1  and  _3
REMARK    2  A    between atoms: _3  and  _4
REMARK    3  A    between atoms: _3  and  _6
REMARK    4  A    between atoms: _6  and  _7
REMARK    5  A    between atoms: _10  and  _12
REMARK    6  A    between atoms: _12  and  _13
REMARK    7  A    between atoms: _16  and  _18
REMARK    8  A    between atoms: _18  and  _19
REMARK    9  A    between atoms: _18  and  _21
REMARK   10  A    between atoms: _21  and  _22
REMARK   11  A    between atoms: _27  and  _29
REMARK   12  A    between atoms: _29  and  _30
REMARK   13  A    between atoms: _29  and  _32
REMARK   14  A    between atoms: _32  and  _33
REMARK   15  A    between atoms: _36  and  _38
REMARK   16  A    between atoms: _38  and  _39
REMARK   17  A    between atoms: _38  and  _41
REMARK   18  A    between atoms: _41  and  _42
REMARK   19  A    between atoms: _42  and  _43
REMARK   20  A    between atoms: _46  and  _48
REMARK   21  A    between atoms: _48  and  _49
REMARK   22  A    between atoms: _48  and  _51
REMARK   23  A    between atoms: _51  and  _52
REMARK   24  A    between atoms: _52  and  _53
REMARK   25  A    between atoms: _56  and  _58
REMARK   26  A    between atoms: _58  and  _59
REMARK   27  A    between atoms: _58  and  _61
REMARK   28  A    between atoms: _61  and  _62
REMARK   29  A    between atoms: _67  and  _68
REMARK   30  A    between atoms: _70  and  _72
REMARK   31  A    between atoms: _72  and  _73
REMARK   32  A    between atoms: _72  and  _75
REMARK   33  A    between atoms: _75  and  _76
REMARK   34  A    between atoms: _81  and  _83
REMARK   35  A    between atoms: _83  and  _84
REMARK   36  A    between atoms: _83  and  _86
REMARK   37  A    between atoms: _86  and  _87
REMARK   38  A    between atoms: _93  and  _95
REMARK   39  A    between atoms: _95  and  _96
REMARK   40  A    between atoms: _95  and  _98
REMARK   41  A    between atoms: _98  and  _99
REMARK   42  A    between atoms: _102  and  _104
REMARK   43  A    between atoms: _104  and  _105
REMARK   44  A    between atoms: _104  and  _107
REMARK   45  A    between atoms: _107  and  _108
REMARK   46  A    between atoms: _111  and  _113
REMARK   47  A    between atoms: _113  and  _114
REMARK   48  A    between atoms: _116  and  _118
REMARK   49  A    between atoms: _118  and  _119
REMARK   50  A    between atoms: _118  and  _121
REMARK   51  A    between atoms: _121  and  _122
REMARK   52  A    between atoms: _124  and  _126
REMARK   53  A    between atoms: _126  and  _127
REMARK   54  A    between atoms: _130  and  _132
REMARK   55  A    between atoms: _132  and  _133
REMARK   56  A    between atoms: _132  and  _135
REMARK   57  A    between atoms: _135  and  _136
REMARK   58  A    between atoms: _139  and  _141
REMARK   59  A    between atoms: _141  and  _142
REMARK   60  A    between atoms: _141  and  _144
REMARK   61  A    between atoms: _144  and  _145
REMARK   62  A    between atoms: _155  and  _157
REMARK   63  A    between atoms: _157  and  _158
REMARK   64  A    between atoms: _157  and  _160
REMARK   65  A    between atoms: _160  and  _161
REMARK   66  A    between atoms: _164  and  _166
REMARK   67  A    between atoms: _166  and  _167
REMARK   68  A    between atoms: _166  and  _169
REMARK   69  A    between atoms: _169  and  _170
REMARK   70  A    between atoms: _172  and  _174
REMARK   71  A    between atoms: _174  and  _175
REMARK   72  A    between atoms: _174  and  _177
REMARK   73  A    between atoms: _177  and  _178
REMARK   74  A    between atoms: _183  and  _184
REMARK   75  A    between atoms: _186  and  _188
REMARK   76  A    between atoms: _188  and  _189
REMARK   77  A    between atoms: _191  and  _193
REMARK   78  A    between atoms: _193  and  _194
REMARK   79  A    between atoms: _193  and  _196
REMARK   80  A    between atoms: _196  and  _197
REMARK   81  A    between atoms: _200  and  _202
REMARK   82  A    between atoms: _202  and  _203
REMARK   83  A    between atoms: _205  and  _207
REMARK   84  A    between atoms: _207  and  _208
REMARK   85  A    between atoms: _207  and  _210
REMARK   86  A    between atoms: _210  and  _211
REMARK   87  A    between atoms: _213  and  _215
REMARK   88  A    between atoms: _215  and  _216
REMARK   89  A    between atoms: _215  and  _218
REMARK   90  A    between atoms: _218  and  _219
REMARK   91  A    between atoms: _221  and  _223
REMARK   92  A    between atoms: _223  and  _224
REMARK   93  A    between atoms: _223  and  _226
REMARK   94  A    between atoms: _226  and  _227
REMARK   95  A    between atoms: _229  and  _231
REMARK   96  A    between atoms: _231  and  _232
REMARK   97  A    between atoms: _231  and  _234
REMARK   98  A    between atoms: _234  and  _235
REMARK   99  A    between atoms: _235  and  _236
REMARK  100  A    between atoms: _241  and  _243
REMARK  101  A    between atoms: _243  and  _244
REMARK  102  A    between atoms: _243  and  _246
REMARK  103  A    between atoms: _246  and  _247
REMARK  104  A    between atoms: _253  and  _255
REMARK  105  A    between atoms: _255  and  _256
REMARK  106  A    between atoms: _255  and  _258
REMARK  107  A    between atoms: _258  and  _259
REMARK  108  A    between atoms: _262  and  _264
REMARK  109  A    between atoms: _264  and  _265
REMARK  110  A    between atoms: _264  and  _267
REMARK  111  A    between atoms: _267  and  _268
REMARK  112  A    between atoms: _273  and  _275
REMARK  113  A    between atoms: _275  and  _276
REMARK  114  A    between atoms: _275  and  _278
REMARK  115  A    between atoms: _278  and  _279
REMARK  116  A    between atoms: _284  and  _286
REMARK  117  A    between atoms: _286  and  _287
REMARK  118  A    between atoms: _289  and  _291
REMARK  119  A    between atoms: _291  and  _292
REMARK  120  A    between atoms: _291  and  _294
REMARK  121  A    between atoms: _294  and  _295
REMARK  122  A    between atoms: _298  and  _300
REMARK  123  A    between atoms: _300  and  _301
REMARK  124  A    between atoms: _300  and  _303
REMARK  125  A    between atoms: _303  and  _304
REMARK  126  A    between atoms: _307  and  _309
REMARK  127  A    between atoms: _309  and  _310
REMARK  128  A    between atoms: _312  and  _314
REMARK  129  A    between atoms: _314  and  _315
REMARK  130  A    between atoms: _314  and  _317
REMARK  131  A    between atoms: _317  and  _318
REMARK  132  A    between atoms: _321  and  _323
REMARK  133  A    between atoms: _323  and  _324
REMARK  134  A    between atoms: _327  and  _329
REMARK  135  A    between atoms: _329  and  _330
REMARK  136  A    between atoms: _329  and  _332
REMARK  137  A    between atoms: _332  and  _333
REMARK  138  A    between atoms: _336  and  _338
REMARK  139  A    between atoms: _338  and  _339
REMARK  140  A    between atoms: _338  and  _341
REMARK  141  A    between atoms: _341  and  _342
REMARK  142  A    between atoms: _342  and  _343
REMARK  143  A    between atoms: _348  and  _350
REMARK  144  A    between atoms: _350  and  _351
REMARK  145  A    between atoms: _350  and  _353
REMARK  146  A    between atoms: _353  and  _354
REMARK  147  A    between atoms: _360  and  _362
REMARK  148  A    between atoms: _362  and  _363
REMARK  149  A    between atoms: _362  and  _365
REMARK  150  A    between atoms: _365  and  _366
REMARK  151  A    between atoms: _376  and  _378
REMARK  152  A    between atoms: _378  and  _379
REMARK  153  A    between atoms: _378  and  _381
REMARK  154  A    between atoms: _381  and  _382
REMARK  155  A    between atoms: _385  and  _387
REMARK  156  A    between atoms: _387  and  _388
REMARK  157  A    between atoms: _391  and  _393
REMARK  158  A    between atoms: _393  and  _394
REMARK  159  A    between atoms: _393  and  _396
REMARK  160  A    between atoms: _396  and  _397
REMARK  161  A    between atoms: _400  and  _402
REMARK  162  A    between atoms: _402  and  _403
REMARK  163  A    between atoms: _402  and  _405
REMARK  164  A    between atoms: _405  and  _406
REMARK  165  A    between atoms: _409  and  _411
REMARK  166  A    between atoms: _411  and  _412
REMARK  167  A    between atoms: _414  and  _416
REMARK  168  A    between atoms: _416  and  _417
REMARK  169  A    between atoms: _416  and  _419
REMARK  170  A    between atoms: _419  and  _420
REMARK  171  A    between atoms: _423  and  _425
REMARK  172  A    between atoms: _425  and  _426
REMARK  173  A    between atoms: _425  and  _428
REMARK  174  A    between atoms: _428  and  _429
REMARK  175  A    between atoms: _432  and  _434
REMARK  176  A    between atoms: _434  and  _435
REMARK  177  A    between atoms: _434  and  _437
REMARK  178  A    between atoms: _437  and  _438
REMARK  179  A    between atoms: _441  and  _443
REMARK  180  A    between atoms: _443  and  _444
REMARK  181  A    between atoms: _443  and  _446
REMARK  182  A    between atoms: _446  and  _447
REMARK  183  A    between atoms: _450  and  _452
REMARK  184  A    between atoms: _452  and  _453
REMARK  185  A    between atoms: _452  and  _455
REMARK  186  A    between atoms: _455  and  _456
REMARK  187  A    between atoms: _459  and  _461
REMARK  188  A    between atoms: _461  and  _462
REMARK  189  A    between atoms: _465  and  _467
REMARK  190  A    between atoms: _467  and  _468
REMARK  191  A    between atoms: _470  and  _472
REMARK  192  A    between atoms: _472  and  _473
REMARK  193  A    between atoms: _475  and  _477
REMARK  194  A    between atoms: _477  and  _478
REMARK  195  A    between atoms: _477  and  _480
REMARK  196  A    between atoms: _480  and  _481
REMARK  197  A    between atoms: _486  and  _487
REMARK  198  A    between atoms: _490  and  _491
REMARK  199  A    between atoms: _496  and  _498
REMARK  200  A    between atoms: _498  and  _499
REMARK  201  A    between atoms: _498  and  _501
REMARK  202  A    between atoms: _501  and  _502
REMARK  203  A    between atoms: _504  and  _506
REMARK  204  A    between atoms: _506  and  _507
REMARK  205  A    between atoms: _506  and  _509
REMARK  206  A    between atoms: _509  and  _510
REMARK  207  A    between atoms: _513  and  _515
REMARK  208  A    between atoms: _515  and  _516
REMARK  209  A    between atoms: _518  and  _520
REMARK  210  A    between atoms: _520  and  _521
REMARK  211  A    between atoms: _520  and  _523
REMARK  212  A    between atoms: _523  and  _524
REMARK  213  A    between atoms: _524  and  _525
REMARK  214  A    between atoms: _530  and  _532
REMARK  215  A    between atoms: _532  and  _533
REMARK  216  A    between atoms: _532  and  _535
REMARK  217  A    between atoms: _535  and  _536
REMARK  218  A    between atoms: _538  and  _540
REMARK  219  A    between atoms: _540  and  _541
REMARK  220  A    between atoms: _540  and  _543
REMARK  221  A    between atoms: _543  and  _544
REMARK  222  A    between atoms: _549  and  _551
REMARK  223  A    between atoms: _551  and  _552
REMARK  224  A    between atoms: _551  and  _554
REMARK  225  A    between atoms: _554  and  _555
REMARK  226  A    between atoms: _557  and  _559
REMARK  227  A    between atoms: _559  and  _560
REMARK  228  A    between atoms: _559  and  _562
REMARK  229  A    between atoms: _562  and  _563
REMARK  230  A    between atoms: _566  and  _568
REMARK  231  A    between atoms: _568  and  _569
REMARK  232  A    between atoms: _568  and  _571
REMARK  233  A    between atoms: _571  and  _572
REMARK  234  A    between atoms: _578  and  _580
REMARK  235  A    between atoms: _580  and  _581
REMARK  236  A    between atoms: _580  and  _583
REMARK  237  A    between atoms: _583  and  _584
REMARK  238  A    between atoms: _586  and  _588
REMARK  239  A    between atoms: _588  and  _589
REMARK  240  A    between atoms: _588  and  _591
REMARK  241  A    between atoms: _591  and  _592
REMARK  242  A    between atoms: _595  and  _597
REMARK  243  A    between atoms: _597  and  _598
REMARK  244  A    between atoms: _597  and  _600
REMARK  245  A    between atoms: _600  and  _601
REMARK  246  A    between atoms: _607  and  _609
REMARK  247  A    between atoms: _609  and  _610
REMARK  248  A    between atoms: _612  and  _614
REMARK  249  A    between atoms: _614  and  _615
REMARK  250  A    between atoms: _614  and  _617
REMARK  251  A    between atoms: _617  and  _618
REMARK                            x       y       z     vdW  Elec       q    Type
REMARK                         _______ _______ _______ _____ _____    ______ ____
ROOT
ATOM      1  CG  TYR A   1       9.982   5.955  14.136  0.00  0.00    -0.020 A 
ATOM      2  CD2 TYR A   1      10.206   4.598  14.316  0.00  0.00    -0.001 A 
ATOM      3  CE2 TYR A   1      11.461   4.039  14.143  0.00  0.00    +0.036 A 
ATOM      4  CZ  TYR A   1      12.510   4.846  13.778  0.00  0.00    +0.134 A 
ATOM      5  CE1 TYR A   1      12.297   6.180  13.577  0.00  0.00    +0.036 A 
ATOM      6  CD1 TYR A   1      11.066   6.745  13.765  0.00  0.00    -0.001 A 
ENDROOT
BRANCH   4   7
ATOM      7  OH  TYR A   1      13.769   4.327  13.601  0.00  0.00    -0.506 OA
ATOM      8  HH  TYR A   1      14.077   3.915  14.447  0.00  0.00    +0.292 HD
ENDBRANCH   4   7
BRANCH   1   9
ATOM      9  CB  TYR A   1       8.607   6.527  14.338  0.00  0.00    +0.051 C 
BRANCH   9  10
ATOM     10  CA  TYR A   1       7.883   6.913  13.062  0.00  0.00    +0.137 C 
BRANCH  10  11
ATOM     11  N   TYR A   1       6.515   7.278  13.339  0.00  0.00    -0.239 NA
ATOM     12  H   TYR A   1       6.132   7.112  14.292  0.00  0.00    +0.142 HD
ENDBRANCH  10  11
BRANCH  10  13
ATOM     13  C   TYR A   1       8.020   5.765  12.074  0.00  0.00    +0.224 C 
ATOM     14  O   TYR A   1       8.836   5.780  11.165  0.00  0.00    -0.287 OA
ENDBRANCH  10  13
ENDBRANCH   9  10
ENDBRANCH   1   9
TORSDOF 5
REMARK  Name = ../refined-set-2016/1bxq/1bxq_pocket.pdb
REMARK  251 active torsions:
REMARK  status: ('A' for Active; 'I' for Inactive)
REMARK    1  A    between atoms: _1  and  _3
REMARK    2  A    between atoms: _3  and  _4
REMARK    3  A    between atoms: _3  and  _6
REMARK    4  A    between atoms: _6  and  _7
REMARK    5  A    between atoms: _10  and  _12
REMARK    6  A    between atoms: _12  and  _13
REMARK    7  A    between atoms: _16  and  _18
REMARK    8  A    between atoms: _18  and  _19
REMARK    9  A    between atoms: _18  and  _21
REMARK   10  A    between atoms: _21  and  _22
REMARK   11  A    between atoms: _27  and  _29
REMARK   12  A    between atoms: _29  and  _30
REMARK   13  A    between atoms: _29  and  _32
REMARK   14  A    between atoms: _32  and  _33
REMARK   15  A    between atoms: _36  and  _38
REMARK   16  A    between atoms: _38  and  _39
REMARK   17  A    between atoms: _38  and  _41
REMARK   18  A    between atoms: _41  and  _42
REMARK   19  A    between atoms: _42  and  _43
REMARK   20  A    between atoms: _46  and  _48
REMARK   21  A    between atoms: _48  and  _49
REMARK   22  A    between atoms: _48  and  _51
REMARK   23  A    between atoms: _51  and  _52
REMARK   24  A    between atoms: _52  and  _53
REMARK   25  A    between atoms: _56  and  _58
REMARK   26  A    between atoms: _58  and  _59
REMARK   27  A    between atoms: _58  and  _61
REMARK   28  A    between atoms: _61  and  _62
REMARK   29  A    between atoms: _67  and  _68
REMARK   30  A    between atoms: _70  and  _72
REMARK   31  A    between atoms: _72  and  _73
REMARK   32  A    between atoms: _72  and  _75
REMARK   33  A    between atoms: _75  and  _76
REMARK   34  A    between atoms: _81  and  _83
REMARK   35  A    between atoms: _83  and  _84
REMARK   36  A    between atoms: _83  and  _86
REMARK   37  A    between atoms: _86  and  _87
REMARK   38  A    between atoms: _93  and  _95
REMARK   39  A    between atoms: _95  and  _96
REMARK   40  A    between atoms: _95  and  _98
REMARK   41  A    between atoms: _98  and  _99
REMARK   42  A    between atoms: _102  and  _104
REMARK   43  A    between atoms: _104  and  _105
REMARK   44  A    between atoms: _104  and  _107
REMARK   45  A    between atoms: _107  and  _108
REMARK   46  A    between atoms: _111  and  _113
REMARK   47  A    between atoms: _113  and  _114
REMARK   48  A    between atoms: _116  and  _118
REMARK   49  A    between atoms: _118  and  _119
REMARK   50  A    between atoms: _118  and  _121
REMARK   51  A    between atoms: _121  and  _122
REMARK   52  A    between atoms: _124  and  _126
REMARK   53  A    between atoms: _126  and  _127
REMARK   54  A    between atoms: _130  and  _132
REMARK   55  A    between atoms: _132  and  _133
REMARK   56  A    between atoms: _132  and  _135
REMARK   57  A    between atoms: _135  and  _136
REMARK   58  A    between atoms: _139  and  _141
REMARK   59  A    between atoms: _141  and  _142
REMARK   60  A    between atoms: _141  and  _144
REMARK   61  A    between atoms: _144  and  _145
REMARK   62  A    between atoms: _155  and  _157
REMARK   63  A    between atoms: _157  and  _158
REMARK   64  A    between atoms: _157  and  _160
REMARK   65  A    between atoms: _160  and  _161
REMARK   66  A    between atoms: _164  and  _166
REMARK   67  A    between atoms: _166  and  _167
REMARK   68  A    between atoms: _166  and  _169
REMARK   69  A    between atoms: _169  and  _170
REMARK   70  A    between atoms: _172  and  _174
REMARK   71  A    between atoms: _174  and  _175
REMARK   72  A    between atoms: _174  and  _177
REMARK   73  A    between atoms: _177  and  _178
REMARK   74  A    between atoms: _183  and  _184
REMARK   75  A    between atoms: _186  and  _188
REMARK   76  A    between atoms: _188  and  _189
REMARK   77  A    between atoms: _191  and  _193
REMARK   78  A    between atoms: _193  and  _194
REMARK   79  A    between atoms: _193  and  _196
REMARK   80  A    between atoms: _196  and  _197
REMARK   81  A    between atoms: _200  and  _202
REMARK   82  A    between atoms: _202  and  _203
REMARK   83  A    between atoms: _205  and  _207
REMARK   84  A    between atoms: _207  and  _208
REMARK   85  A    between atoms: _207  and  _210
REMARK   86  A    between atoms: _210  and  _211
REMARK   87  A    between atoms: _213  and  _215
REMARK   88  A    between atoms: _215  and  _216
REMARK   89  A    between atoms: _215  and  _218
REMARK   90  A    between atoms: _218  and  _219
REMARK   91  A    between atoms: _221  and  _223
REMARK   92  A    between atoms: _223  and  _224
REMARK   93  A    between atoms: _223  and  _226
REMARK   94  A    between atoms: _226  and  _227
REMARK   95  A    between atoms: _229  and  _231
REMARK   96  A    between atoms: _231  and  _232
REMARK   97  A    between atoms: _231  and  _234
REMARK   98  A    between atoms: _234  and  _235
REMARK   99  A    between atoms: _235  and  _236
REMARK  100  A    between atoms: _241  and  _243
REMARK  101  A    between atoms: _243  and  _244
REMARK  102  A    between atoms: _243  and  _246
REMARK  103  A    between atoms: _246  and  _247
REMARK  104  A    between atoms: _253  and  _255
REMARK  105  A    between atoms: _255  and  _256
REMARK  106  A    between atoms: _255  and  _258
REMARK  107  A    between atoms: _258  and  _259
REMARK  108  A    between atoms: _262  and  _264
REMARK  109  A    between atoms: _264  and  _265
REMARK  110  A    between atoms: _264  and  _267
REMARK  111  A    between atoms: _267  and  _268
REMARK  112  A    between atoms: _273  and  _275
REMARK  113  A    between atoms: _275  and  _276
REMARK  114  A    between atoms: _275  and  _278
REMARK  115  A    between atoms: _278  and  _279
REMARK  116  A    between atoms: _284  and  _286
REMARK  117  A    between atoms: _286  and  _287
REMARK  118  A    between atoms: _289  and  _291
REMARK  119  A    between atoms: _291  and  _292
REMARK  120  A    between atoms: _291  and  _294
REMARK  121  A    between atoms: _294  and  _295
REMARK  122  A    between atoms: _298  and  _300
REMARK  123  A    between atoms: _300  and  _301
REMARK  124  A    between atoms: _300  and  _303
REMARK  125  A    between atoms: _303  and  _304
REMARK  126  A    between atoms: _307  and  _309
REMARK  127  A    between atoms: _309  and  _310
REMARK  128  A    between atoms: _312  and  _314
REMARK  129  A    between atoms: _314  and  _315
REMARK  130  A    between atoms: _314  and  _317
REMARK  131  A    between atoms: _317  and  _318
REMARK  132  A    between atoms: _321  and  _323
REMARK  133  A    between atoms: _323  and  _324
REMARK  134  A    between atoms: _327  and  _329
REMARK  135  A    between atoms: _329  and  _330
REMARK  136  A    between atoms: _329  and  _332
REMARK  137  A    between atoms: _332  and  _333
REMARK  138  A    between atoms: _336  and  _338
REMARK  139  A    between atoms: _338  and  _339
REMARK  140  A    between atoms: _338  and  _341
REMARK  141  A    between atoms: _341  and  _342
REMARK  142  A    between atoms: _342  and  _343
REMARK  143  A    between atoms: _348  and  _350
REMARK  144  A    between atoms: _350  and  _351
REMARK  145  A    between atoms: _350  and  _353
REMARK  146  A    between atoms: _353  and  _354
REMARK  147  A    between atoms: _360  and  _362
REMARK  148  A    between atoms: _362  and  _363
REMARK  149  A    between atoms: _362  and  _365
REMARK  150  A    between atoms: _365  and  _366
REMARK  151  A    between atoms: _376  and  _378
REMARK  152  A    between atoms: _378  and  _379
REMARK  153  A    between atoms: _378  and  _381
REMARK  154  A    between atoms: _381  and  _382
REMARK  155  A    between atoms: _385  and  _387
REMARK  156  A    between atoms: _387  and  _388
REMARK  157  A    between atoms: _391  and  _393
REMARK  158  A    between atoms: _393  and  _394
REMARK  159  A    between atoms: _393  and  _396
REMARK  160  A    between atoms: _396  and  _397
REMARK  161  A    between atoms: _400  and  _402
REMARK  162  A    between atoms: _402  and  _403
REMARK  163  A    between atoms: _402  and  _405
REMARK  164  A    between atoms: _405  and  _406
REMARK  165  A    between atoms: _409  and  _411
REMARK  166  A    between atoms: _411  and  _412
REMARK  167  A    between atoms: _414  and  _416
REMARK  168  A    between atoms: _416  and  _417
REMARK  169  A    between atoms: _416  and  _419
REMARK  170  A    between atoms: _419  and  _420
REMARK  171  A    between atoms: _423  and  _425
REMARK  172  A    between atoms: _425  and  _426
REMARK  173  A    between atoms: _425  and  _428
REMARK  174  A    between atoms: _428  and  _429
REMARK  175  A    between atoms: _432  and  _434
REMARK  176  A    between atoms: _434  and  _435
REMARK  177  A    between atoms: _434  and  _437
REMARK  178  A    between atoms: _437  and  _438
REMARK  179  A    between atoms: _441  and  _443
REMARK  180  A    between atoms: _443  and  _444
REMARK  181  A    between atoms: _443  and  _446
REMARK  182  A    between atoms: _446  and  _447
REMARK  183  A    between atoms: _450  and  _452
REMARK  184  A    between atoms: _452  and  _453
REMARK  185  A    between atoms: _452  and  _455
REMARK  186  A    between atoms: _455  and  _456
REMARK  187  A    between atoms: _459  and  _461
REMARK  188  A    between atoms: _461  and  _462
REMARK  189  A    between atoms: _465  and  _467
REMARK  190  A    between atoms: _467  and  _468
REMARK  191  A    between atoms: _470  and  _472
REMARK  192  A    between atoms: _472  and  _473
REMARK  193  A    between atoms: _475  and  _477
REMARK  194  A    between atoms: _477  and  _478
REMARK  195  A    between atoms: _477  and  _480
REMARK  196  A    between atoms: _480  and  _481
REMARK  197  A    between atoms: _486  and  _487
REMARK  198  A    between atoms: _490  and  _491
REMARK  199  A    between atoms: _496  and  _498
REMARK  200  A    between atoms: _498  and  _499
REMARK  201  A    between atoms: _498  and  _501
REMARK  202  A    between atoms: _501  and  _502
REMARK  203  A    between atoms: _504  and  _506
REMARK  204  A    between atoms: _506  and  _507
REMARK  205  A    between atoms: _506  and  _509
REMARK  206  A    between atoms: _509  and  _510
REMARK  207  A    between atoms: _513  and  _515
REMARK  208  A    between atoms: _515  and  _516
REMARK  209  A    between atoms: _518  and  _520
REMARK  210  A    between atoms: _520  and  _521
REMARK  211  A    between atoms: _520  and  _523
REMARK  212  A    between atoms: _523  and  _524
REMARK  213  A    between atoms: _524  and  _525
REMARK  214  A    between atoms: _530  and  _532
REMARK  215  A    between atoms: _532  and  _533
REMARK  216  A    between atoms: _532  and  _535
REMARK  217  A    between atoms: _535  and  _536
REMARK  218  A    between atoms: _538  and  _540
REMARK  219  A    between atoms: _540  and  _541
REMARK  220  A    between atoms: _540  and  _543
REMARK  221  A    between atoms: _543  and  _544
REMARK  222  A    between atoms: _549  and  _551
REMARK  223  A    between atoms: _551  and  _552
REMARK  224  A    between atoms: _551  and  _554
REMARK  225  A    between atoms: _554  and  _555
REMARK  226  A    between atoms: _557  and  _559
REMARK  227  A    between atoms: _559  and  _560
REMARK  228  A    between atoms: _559  and  _562
REMARK  229  A    between atoms: _562  and  _563
REMARK  230  A    between atoms: _566  and  _568
REMARK  231  A    between atoms: _568  and  _569
REMARK  232  A    between atoms: _568  and  _571
REMARK  233  A    between atoms: _571  and  _572
REMARK  234  A    between atoms: _578  and  _580
REMARK  235  A    between atoms: _580  and  _581
REMARK  236  A    between atoms: _580  and  _583
REMARK  237  A    between atoms: _583  and  _584
REMARK  238  A    between atoms: _586  and  _588
REMARK  239  A    between atoms: _588  and  _589
REMARK  240  A    between atoms: _588  and  _591
REMARK  241  A    between atoms: _591  and  _592
REMARK  242  A    between atoms: _595  and  _597
REMARK  243  A    between atoms: _597  and  _598
REMARK  244  A    between atoms: _597  and  _600
REMARK  245  A    between atoms: _600  and  _601
REMARK  246  A    between atoms: _607  and  _609
REMARK  247  A    between atoms: _609  and  _610
REMARK  248  A    between atoms: _612  and  _614
REMARK  249  A    between atoms: _614  and  _615
REMARK  250  A    between atoms: _614  and  _617
REMARK  251  A    between atoms: _617  and  _618
REMARK                            x       y       z     vdW  Elec       q    Type
REMARK                         _______ _______ _______ _____ _____    ______ ____
ROOT
ATOM      1  C   PRO A   1       7.020  -0.239  13.171  0.00  0.00    +0.239 C 
ATOM      2  N   SER A   2       6.333  -0.658  14.217  0.00  0.00    -0.296 N 
ATOM      3  H   SER A   2       5.324  -0.877  14.095  0.00  0.00    +0.150 HD
ATOM      4  O   PRO A   1       8.245  -0.063  13.188  0.00  0.00    -0.274 OA
ENDROOT
BRANCH   1   6
ATOM      5  N   PRO A   1       6.647   1.324  11.348  0.00  0.00    -0.210 NA
ATOM      6  CA  PRO A   1       6.203   0.063  11.924  0.00  0.00    +0.149 C 
ATOM      7  CB  PRO A   1       6.538  -0.938  10.831  0.00  0.00    +0.028 C 
ATOM      8  CG  PRO A   1       6.730  -0.171   9.580  0.00  0.00    +0.021 C 
ATOM      9  CD  PRO A   1       7.109   1.241   9.947  0.00  0.00    +0.089 C 
ENDBRANCH   1   6
BRANCH   2  10
ATOM     10  CA  SER A   2       6.926  -0.825  15.527  0.00  0.00    +0.166 C 
BRANCH  10  11
ATOM     11  CB  SER A   2       7.867  -2.018  15.587  0.00  0.00    +0.229 C 
ATOM     12  OG  SER A   2       8.690  -2.115  16.503  0.00  0.00    -0.286 OA
ENDBRANCH  10  11
BRANCH  10  13
ATOM     13  C   SER A   2       5.803  -0.969  16.562  0.00  0.00    +0.165 C 
BRANCH  13  14
ATOM     14  O   SER A   2       5.235  -2.262  16.470  0.00  0.00    -0.380 OA
ATOM     15  H   SER A   2       4.511  -2.351  17.139  0.00  0.00    +0.211 HD
ENDBRANCH  13  14
ENDBRANCH  10  13
ENDBRANCH   2  10
TORSDOF 5
REMARK  Name = ../refined-set-2016/1bxq/1bxq_pocket.pdb
REMARK  251 active torsions:
REMARK  status: ('A' for Active; 'I' for Inactive)
REMARK    1  A    between atoms: _1  and  _3
REMARK    2  A    between atoms: _3  and  _4
REMARK    3  A    between atoms: _3  and  _6
REMARK    4  A    between atoms: _6  and  _7
REMARK    5  A    between atoms: _10  and  _12
REMARK    6  A    between atoms: _12  and  _13
REMARK    7  A    between atoms: _16  and  _18
REMARK    8  A    between atoms: _18  and  _19
REMARK    9  A    between atoms: _18  and  _21
REMARK   10  A    between atoms: _21  and  _22
REMARK   11  A    between atoms: _27  and  _29
REMARK   12  A    between atoms: _29  and  _30
REMARK   13  A    between atoms: _29  and  _32
REMARK   14  A    between atoms: _32  and  _33
REMARK   15  A    between atoms: _36  and  _38
REMARK   16  A    between atoms: _38  and  _39
REMARK   17  A    between atoms: _38  and  _41
REMARK   18  A    between atoms: _41  and  _42
REMARK   19  A    between atoms: _42  and  _43
REMARK   20  A    between atoms: _46  and  _48
REMARK   21  A    between atoms: _48  and  _49
REMARK   22  A    between atoms: _48  and  _51
REMARK   23  A    between atoms: _51  and  _52
REMARK   24  A    between atoms: _52  and  _53
REMARK   25  A    between atoms: _56  and  _58
REMARK   26  A    between atoms: _58  and  _59
REMARK   27  A    between atoms: _58  and  _61
REMARK   28  A    between atoms: _61  and  _62
REMARK   29  A    between atoms: _67  and  _68
REMARK   30  A    between atoms: _70  and  _72
REMARK   31  A    between atoms: _72  and  _73
REMARK   32  A    between atoms: _72  and  _75
REMARK   33  A    between atoms: _75  and  _76
REMARK   34  A    between atoms: _81  and  _83
REMARK   35  A    between atoms: _83  and  _84
REMARK   36  A    between atoms: _83  and  _86
REMARK   37  A    between atoms: _86  and  _87
REMARK   38  A    between atoms: _93  and  _95
REMARK   39  A    between atoms: _95  and  _96
REMARK   40  A    between atoms: _95  and  _98
REMARK   41  A    between atoms: _98  and  _99
REMARK   42  A    between atoms: _102  and  _104
REMARK   43  A    between atoms: _104  and  _105
REMARK   44  A    between atoms: _104  and  _107
REMARK   45  A    between atoms: _107  and  _108
REMARK   46  A    between atoms: _111  and  _113
REMARK   47  A    between atoms: _113  and  _114
REMARK   48  A    between atoms: _116  and  _118
REMARK   49  A    between atoms: _118  and  _119
REMARK   50  A    between atoms: _118  and  _121
REMARK   51  A    between atoms: _121  and  _122
REMARK   52  A    between atoms: _124  and  _126
REMARK   53  A    between atoms: _126  and  _127
REMARK   54  A    between atoms: _130  and  _132
REMARK   55  A    between atoms: _132  and  _133
REMARK   56  A    between atoms: _132  and  _135
REMARK   57  A    between atoms: _135  and  _136
REMARK   58  A    between atoms: _139  and  _141
REMARK   59  A    between atoms: _141  and  _142
REMARK   60  A    between atoms: _141  and  _144
REMARK   61  A    between atoms: _144  and  _145
REMARK   62  A    between atoms: _155  and  _157
REMARK   63  A    between atoms: _157  and  _158
REMARK   64  A    between atoms: _157  and  _160
REMARK   65  A    between atoms: _160  and  _161
REMARK   66  A    between atoms: _164  and  _166
REMARK   67  A    between atoms: _166  and  _167
REMARK   68  A    between atoms: _166  and  _169
REMARK   69  A    between atoms: _169  and  _170
REMARK   70  A    between atoms: _172  and  _174
REMARK   71  A    between atoms: _174  and  _175
REMARK   72  A    between atoms: _174  and  _177
REMARK   73  A    between atoms: _177  and  _178
REMARK   74  A    between atoms: _183  and  _184
REMARK   75  A    between atoms: _186  and  _188
REMARK   76  A    between atoms: _188  and  _189
REMARK   77  A    between atoms: _191  and  _193
REMARK   78  A    between atoms: _193  and  _194
REMARK   79  A    between atoms: _193  and  _196
REMARK   80  A    between atoms: _196  and  _197
REMARK   81  A    between atoms: _200  and  _202
REMARK   82  A    between atoms: _202  and  _203
REMARK   83  A    between atoms: _205  and  _207
REMARK   84  A    between atoms: _207  and  _208
REMARK   85  A    between atoms: _207  and  _210
REMARK   86  A    between atoms: _210  and  _211
REMARK   87  A    between atoms: _213  and  _215
REMARK   88  A    between atoms: _215  and  _216
REMARK   89  A    between atoms: _215  and  _218
REMARK   90  A    between atoms: _218  and  _219
REMARK   91  A    between atoms: _221  and  _223
REMARK   92  A    between atoms: _223  and  _224
REMARK   93  A    between atoms: _223  and  _226
REMARK   94  A    between atoms: _226  and  _227
REMARK   95  A    between atoms: _229  and  _231
REMARK   96  A    between atoms: _231  and  _232
REMARK   97  A    between atoms: _231  and  _234
REMARK   98  A    between atoms: _234  and  _235
REMARK   99  A    between atoms: _235  and  _236
REMARK  100  A    between atoms: _241  and  _243
REMARK  101  A    between atoms: _243  and  _244
REMARK  102  A    between atoms: _243  and  _246
REMARK  103  A    between atoms: _246  and  _247
REMARK  104  A    between atoms: _253  and  _255
REMARK  105  A    between atoms: _255  and  _256
REMARK  106  A    between atoms: _255  and  _258
REMARK  107  A    between atoms: _258  and  _259
REMARK  108  A    between atoms: _262  and  _264
REMARK  109  A    between atoms: _264  and  _265
REMARK  110  A    between atoms: _264  and  _267
REMARK  111  A    between atoms: _267  and  _268
REMARK  112  A    between atoms: _273  and  _275
REMARK  113  A    between atoms: _275  and  _276
REMARK  114  A    between atoms: _275  and  _278
REMARK  115  A    between atoms: _278  and  _279
REMARK  116  A    between atoms: _284  and  _286
REMARK  117  A    between atoms: _286  and  _287
REMARK  118  A    between atoms: _289  and  _291
REMARK  119  A    between atoms: _291  and  _292
REMARK  120  A    between atoms: _291  and  _294
REMARK  121  A    between atoms: _294  and  _295
REMARK  122  A    between atoms: _298  and  _300
REMARK  123  A    between atoms: _300  and  _301
REMARK  124  A    between atoms: _300  and  _303
REMARK  125  A    between atoms: _303  and  _304
REMARK  126  A    between atoms: _307  and  _309
REMARK  127  A    between atoms: _309  and  _310
REMARK  128  A    between atoms: _312  and  _314
REMARK  129  A    between atoms: _314  and  _315
REMARK  130  A    between atoms: _314  and  _317
REMARK  131  A    between atoms: _317  and  _318
REMARK  132  A    between atoms: _321  and  _323
REMARK  133  A    between atoms: _323  and  _324
REMARK  134  A    between atoms: _327  and  _329
REMARK  135  A    between atoms: _329  and  _330
REMARK  136  A    between atoms: _329  and  _332
REMARK  137  A    between atoms: _332  and  _333
REMARK  138  A    between atoms: _336  and  _338
REMARK  139  A    between atoms: _338  and  _339
REMARK  140  A    between atoms: _338  and  _341
REMARK  141  A    between atoms: _341  and  _342
REMARK  142  A    between atoms: _342  and  _343
REMARK  143  A    between atoms: _348  and  _350
REMARK  144  A    between atoms: _350  and  _351
REMARK  145  A    between atoms: _350  and  _353
REMARK  146  A    between atoms: _353  and  _354
REMARK  147  A    between atoms: _360  and  _362
REMARK  148  A    between atoms: _362  and  _363
REMARK  149  A    between atoms: _362  and  _365
REMARK  150  A    between atoms: _365  and  _366
REMARK  151  A    between atoms: _376  and  _378
REMARK  152  A    between atoms: _378  and  _379
REMARK  153  A    between atoms: _378  and  _381
REMARK  154  A    between atoms: _381  and  _382
REMARK  155  A    between atoms: _385  and  _387
REMARK  156  A    between atoms: _387  and  _388
REMARK  157  A    between atoms: _391  and  _393
REMARK  158  A    between atoms: _393  and  _394
REMARK  159  A    between atoms: _393  and  _396
REMARK  160  A    between atoms: _396  and  _397
REMARK  161  A    between atoms: _400  and  _402
REMARK  162  A    between atoms: _402  and  _403
REMARK  163  A    between atoms: _402  and  _405
REMARK  164  A    between atoms: _405  and  _406
REMARK  165  A    between atoms: _409  and  _411
REMARK  166  A    between atoms: _411  and  _412
REMARK  167  A    between atoms: _414  and  _416
REMARK  168  A    between atoms: _416  and  _417
REMARK  169  A    between atoms: _416  and  _419
REMARK  170  A    between atoms: _419  and  _420
REMARK  171  A    between atoms: _423  and  _425
REMARK  172  A    between atoms: _425  and  _426
REMARK  173  A    between atoms: _425  and  _428
REMARK  174  A    between atoms: _428  and  _429
REMARK  175  A    between atoms: _432  and  _434
REMARK  176  A    between atoms: _434  and  _435
REMARK  177  A    between atoms: _434  and  _437
REMARK  178  A    between atoms: _437  and  _438
REMARK  179  A    between atoms: _441  and  _443
REMARK  180  A    between atoms: _443  and  _444
REMARK  181  A    between atoms: _443  and  _446
REMARK  182  A    between atoms: _446  and  _447
REMARK  183  A    between atoms: _450  and  _452
REMARK  184  A    between atoms: _452  and  _453
REMARK  185  A    between atoms: _452  and  _455
REMARK  186  A    between atoms: _455  and  _456
REMARK  187  A    between atoms: _459  and  _461
REMARK  188  A    between atoms: _461  and  _462
REMARK  189  A    between atoms: _465  and  _467
REMARK  190  A    between atoms: _467  and  _468
REMARK  191  A    between atoms: _470  and  _472
REMARK  192  A    between atoms: _472  and  _473
REMARK  193  A    between atoms: _475  and  _477
REMARK  194  A    between atoms: _477  and  _478
REMARK  195  A    between atoms: _477  and  _480
REMARK  196  A    between atoms: _480  and  _481
REMARK  197  A    between atoms: _486  and  _487
REMARK  198  A    between atoms: _490  and  _491
REMARK  199  A    between atoms: _496  and  _498
REMARK  200  A    between atoms: _498  and  _499
REMARK  201  A    between atoms: _498  and  _501
REMARK  202  A    between atoms: _501  and  _502
REMARK  203  A    between atoms: _504  and  _506
REMARK  204  A    between atoms: _506  and  _507
REMARK  205  A    between atoms: _506  and  _509
REMARK  206  A    between atoms: _509  and  _510
REMARK  207  A    between atoms: _513  and  _515
REMARK  208  A    between atoms: _515  and  _516
REMARK  209  A    between atoms: _518  and  _520
REMARK  210  A    between atoms: _520  and  _521
REMARK  211  A    between atoms: _520  and  _523
REMARK  212  A    between atoms: _523  and  _524
REMARK  213  A    between atoms: _524  and  _525
REMARK  214  A    between atoms: _530  and  _532
REMARK  215  A    between atoms: _532  and  _533
REMARK  216  A    between atoms: _532  and  _535
REMARK  217  A    between atoms: _535  and  _536
REMARK  218  A    between atoms: _538  and  _540
REMARK  219  A    between atoms: _540  and  _541
REMARK  220  A    between atoms: _540  and  _543
REMARK  221  A    between atoms: _543  and  _544
REMARK  222  A    between atoms: _549  and  _551
REMARK  223  A    between atoms: _551  and  _552
REMARK  224  A    between atoms: _551  and  _554
REMARK  225  A    between atoms: _554  and  _555
REMARK  226  A    between atoms: _557  and  _559
REMARK  227  A    between atoms: _559  and  _560
REMARK  228  A    between atoms: _559  and  _562
REMARK  229  A    between atoms: _562  and  _563
REMARK  230  A    between atoms: _566  and  _568
REMARK  231  A    between atoms: _568  and  _569
REMARK  232  A    between atoms: _568  and  _571
REMARK  233  A    between atoms: _571  and  _572
REMARK  234  A    between atoms: _578  and  _580
REMARK  235  A    between atoms: _580  and  _581
REMARK  236  A    between atoms: _580  and  _583
REMARK  237  A    between atoms: _583  and  _584
REMARK  238  A    between atoms: _586  and  _588
REMARK  239  A    between atoms: _588  and  _589
REMARK  240  A    between atoms: _588  and  _591
REMARK  241  A    between atoms: _591  and  _592
REMARK  242  A    between atoms: _595  and  _597
REMARK  243  A    between atoms: _597  and  _598
REMARK  244  A    between atoms: _597  and  _600
REMARK  245  A    between atoms: _600  and  _601
REMARK  246  A    between atoms: _607  and  _609
REMARK  247  A    between atoms: _609  and  _610
REMARK  248  A    between atoms: _612  and  _614
REMARK  249  A    between atoms: _614  and  _615
REMARK  250  A    between atoms: _614  and  _617
REMARK  251  A    between atoms: _617  and  _618
REMARK                            x       y       z     vdW  Elec       q    Type
REMARK                         _______ _______ _______ _____ _____    ______ ____
ROOT
ATOM      1  CA  LEU A   1       5.859   3.639  17.028  0.00  0.00    +0.145 C 
ENDROOT
BRANCH   1   2
ATOM      2  C   LEU A   1       5.729   5.153  16.847  0.00  0.00    +0.238 C 
ATOM      3  N   GLY A   2       5.390   5.784  17.967  0.00  0.00    -0.297 N 
ATOM      4  H   GLY A   2       5.207   5.226  18.825  0.00  0.00    +0.150 HD
ATOM      5  O   LEU A   1       5.930   5.708  15.749  0.00  0.00    -0.274 OA
BRANCH   3   6
ATOM      6  CA  GLY A   2       5.268   7.225  18.026  0.00  0.00    +0.163 C 
BRANCH   6   7
ATOM      7  C   GLY A   2       6.581   7.964  17.980  0.00  0.00    +0.229 C 
ATOM      8  O   GLY A   2       7.572   7.541  18.577  0.00  0.00    -0.286 OA
ENDBRANCH   6   7
ENDBRANCH   3   6
ENDBRANCH   1   2
BRANCH   1   9
ATOM      9  N   LEU A   1       5.236   2.937  15.941  0.00  0.00    -0.238 NA
ATOM     10  H   LEU A   1       5.825   2.628  15.141  0.00  0.00    +0.142 HD
ENDBRANCH   1   9
BRANCH   1  11
ATOM     11  CB  LEU A   1       7.350   3.286  17.126  0.00  0.00    +0.026 C 
BRANCH  11  12
ATOM     12  CG  LEU A   1       8.121   3.882  18.297  0.00  0.00    +0.002 C 
ATOM     13  CD2 LEU A   1       7.738   3.287  19.627  0.00  0.00    +0.000 C 
ATOM     14  CD1 LEU A   1       9.645   3.743  18.090  0.00  0.00    +0.000 C 
ENDBRANCH  11  12
ENDBRANCH   1  11
TORSDOF 6
REMARK  Name = ../refined-set-2016/1bxq/1bxq_pocket.pdb
REMARK  251 active torsions:
REMARK  status: ('A' for Active; 'I' for Inactive)
REMARK    1  A    between atoms: _1  and  _3
REMARK    2  A    between atoms: _3  and  _4
REMARK    3  A    between atoms: _3  and  _6
REMARK    4  A    between atoms: _6  and  _7
REMARK    5  A    between atoms: _10  and  _12
REMARK    6  A    between atoms: _12  and  _13
REMARK    7  A    between atoms: _16  and  _18
REMARK    8  A    between atoms: _18  and  _19
REMARK    9  A    between atoms: _18  and  _21
REMARK   10  A    between atoms: _21  and  _22
REMARK   11  A    between atoms: _27  and  _29
REMARK   12  A    between atoms: _29  and  _30
REMARK   13  A    between atoms: _29  and  _32
REMARK   14  A    between atoms: _32  and  _33
REMARK   15  A    between atoms: _36  and  _38
REMARK   16  A    between atoms: _38  and  _39
REMARK   17  A    between atoms: _38  and  _41
REMARK   18  A    between atoms: _41  and  _42
REMARK   19  A    between atoms: _42  and  _43
REMARK   20  A    between atoms: _46  and  _48
REMARK   21  A    between atoms: _48  and  _49
REMARK   22  A    between atoms: _48  and  _51
REMARK   23  A    between atoms: _51  and  _52
REMARK   24  A    between atoms: _52  and  _53
REMARK   25  A    between atoms: _56  and  _58
REMARK   26  A    between atoms: _58  and  _59
REMARK   27  A    between atoms: _58  and  _61
REMARK   28  A    between atoms: _61  and  _62
REMARK   29  A    between atoms: _67  and  _68
REMARK   30  A    between atoms: _70  and  _72
REMARK   31  A    between atoms: _72  and  _73
REMARK   32  A    between atoms: _72  and  _75
REMARK   33  A    between atoms: _75  and  _76
REMARK   34  A    between atoms: _81  and  _83
REMARK   35  A    between atoms: _83  and  _84
REMARK   36  A    between atoms: _83  and  _86
REMARK   37  A    between atoms: _86  and  _87
REMARK   38  A    between atoms: _93  and  _95
REMARK   39  A    between atoms: _95  and  _96
REMARK   40  A    between atoms: _95  and  _98
REMARK   41  A    between atoms: _98  and  _99
REMARK   42  A    between atoms: _102  and  _104
REMARK   43  A    between atoms: _104  and  _105
REMARK   44  A    between atoms: _104  and  _107
REMARK   45  A    between atoms: _107  and  _108
REMARK   46  A    between atoms: _111  and  _113
REMARK   47  A    between atoms: _113  and  _114
REMARK   48  A    between atoms: _116  and  _118
REMARK   49  A    between atoms: _118  and  _119
REMARK   50  A    between atoms: _118  and  _121
REMARK   51  A    between atoms: _121  and  _122
REMARK   52  A    between atoms: _124  and  _126
REMARK   53  A    between atoms: _126  and  _127
REMARK   54  A    between atoms: _130  and  _132
REMARK   55  A    between atoms: _132  and  _133
REMARK   56  A    between atoms: _132  and  _135
REMARK   57  A    between atoms: _135  and  _136
REMARK   58  A    between atoms: _139  and  _141
REMARK   59  A    between atoms: _141  and  _142
REMARK   60  A    between atoms: _141  and  _144
REMARK   61  A    between atoms: _144  and  _145
REMARK   62  A    between atoms: _155  and  _157
REMARK   63  A    between atoms: _157  and  _158
REMARK   64  A    between atoms: _157  and  _160
REMARK   65  A    between atoms: _160  and  _161
REMARK   66  A    between atoms: _164  and  _166
REMARK   67  A    between atoms: _166  and  _167
REMARK   68  A    between atoms: _166  and  _169
REMARK   69  A    between atoms: _169  and  _170
REMARK   70  A    between atoms: _172  and  _174
REMARK   71  A    between atoms: _174  and  _175
REMARK   72  A    between atoms: _174  and  _177
REMARK   73  A    between atoms: _177  and  _178
REMARK   74  A    between atoms: _183  and  _184
REMARK   75  A    between atoms: _186  and  _188
REMARK   76  A    between atoms: _188  and  _189
REMARK   77  A    between atoms: _191  and  _193
REMARK   78  A    between atoms: _193  and  _194
REMARK   79  A    between atoms: _193  and  _196
REMARK   80  A    between atoms: _196  and  _197
REMARK   81  A    between atoms: _200  and  _202
REMARK   82  A    between atoms: _202  and  _203
REMARK   83  A    between atoms: _205  and  _207
REMARK   84  A    between atoms: _207  and  _208
REMARK   85  A    between atoms: _207  and  _210
REMARK   86  A    between atoms: _210  and  _211
REMARK   87  A    between atoms: _213  and  _215
REMARK   88  A    between atoms: _215  and  _216
REMARK   89  A    between atoms: _215  and  _218
REMARK   90  A    between atoms: _218  and  _219
REMARK   91  A    between atoms: _221  and  _223
REMARK   92  A    between atoms: _223  and  _224
REMARK   93  A    between atoms: _223  and  _226
REMARK   94  A    between atoms: _226  and  _227
REMARK   95  A    between atoms: _229  and  _231
REMARK   96  A    between atoms: _231  and  _232
REMARK   97  A    between atoms: _231  and  _234
REMARK   98  A    between atoms: _234  and  _235
REMARK   99  A    between atoms: _235  and  _236
REMARK  100  A    between atoms: _241  and  _243
REMARK  101  A    between atoms: _243  and  _244
REMARK  102  A    between atoms: _243  and  _246
REMARK  103  A    between atoms: _246  and  _247
REMARK  104  A    between atoms: _253  and  _255
REMARK  105  A    between atoms: _255  and  _256
REMARK  106  A    between atoms: _255  and  _258
REMARK  107  A    between atoms: _258  and  _259
REMARK  108  A    between atoms: _262  and  _264
REMARK  109  A    between atoms: _264  and  _265
REMARK  110  A    between atoms: _264  and  _267
REMARK  111  A    between atoms: _267  and  _268
REMARK  112  A    between atoms: _273  and  _275
REMARK  113  A    between atoms: _275  and  _276
REMARK  114  A    between atoms: _275  and  _278
REMARK  115  A    between atoms: _278  and  _279
REMARK  116  A    between atoms: _284  and  _286
REMARK  117  A    between atoms: _286  and  _287
REMARK  118  A    between atoms: _289  and  _291
REMARK  119  A    between atoms: _291  and  _292
REMARK  120  A    between atoms: _291  and  _294
REMARK  121  A    between atoms: _294  and  _295
REMARK  122  A    between atoms: _298  and  _300
REMARK  123  A    between atoms: _300  and  _301
REMARK  124  A    between atoms: _300  and  _303
REMARK  125  A    between atoms: _303  and  _304
REMARK  126  A    between atoms: _307  and  _309
REMARK  127  A    between atoms: _309  and  _310
REMARK  128  A    between atoms: _312  and  _314
REMARK  129  A    between atoms: _314  and  _315
REMARK  130  A    between atoms: _314  and  _317
REMARK  131  A    between atoms: _317  and  _318
REMARK  132  A    between atoms: _321  and  _323
REMARK  133  A    between atoms: _323  and  _324
REMARK  134  A    between atoms: _327  and  _329
REMARK  135  A    between atoms: _329  and  _330
REMARK  136  A    between atoms: _329  and  _332
REMARK  137  A    between atoms: _332  and  _333
REMARK  138  A    between atoms: _336  and  _338
REMARK  139  A    between atoms: _338  and  _339
REMARK  140  A    between atoms: _338  and  _341
REMARK  141  A    between atoms: _341  and  _342
REMARK  142  A    between atoms: _342  and  _343
REMARK  143  A    between atoms: _348  and  _350
REMARK  144  A    between atoms: _350  and  _351
REMARK  145  A    between atoms: _350  and  _353
REMARK  146  A    between atoms: _353  and  _354
REMARK  147  A    between atoms: _360  and  _362
REMARK  148  A    between atoms: _362  and  _363
REMARK  149  A    between atoms: _362  and  _365
REMARK  150  A    between atoms: _365  and  _366
REMARK  151  A    between atoms: _376  and  _378
REMARK  152  A    between atoms: _378  and  _379
REMARK  153  A    between atoms: _378  and  _381
REMARK  154  A    between atoms: _381  and  _382
REMARK  155  A    between atoms: _385  and  _387
REMARK  156  A    between atoms: _387  and  _388
REMARK  157  A    between atoms: _391  and  _393
REMARK  158  A    between atoms: _393  and  _394
REMARK  159  A    between atoms: _393  and  _396
REMARK  160  A    between atoms: _396  and  _397
REMARK  161  A    between atoms: _400  and  _402
REMARK  162  A    between atoms: _402  and  _403
REMARK  163  A    between atoms: _402  and  _405
REMARK  164  A    between atoms: _405  and  _406
REMARK  165  A    between atoms: _409  and  _411
REMARK  166  A    between atoms: _411  and  _412
REMARK  167  A    between atoms: _414  and  _416
REMARK  168  A    between atoms: _416  and  _417
REMARK  169  A    between atoms: _416  and  _419
REMARK  170  A    between atoms: _419  and  _420
REMARK  171  A    between atoms: _423  and  _425
REMARK  172  A    between atoms: _425  and  _426
REMARK  173  A    between atoms: _425  and  _428
REMARK  174  A    between atoms: _428  and  _429
REMARK  175  A    between atoms: _432  and  _434
REMARK  176  A    between atoms: _434  and  _435
REMARK  177  A    between atoms: _434  and  _437
REMARK  178  A    between atoms: _437  and  _438
REMARK  179  A    between atoms: _441  and  _443
REMARK  180  A    between atoms: _443  and  _444
REMARK  181  A    between atoms: _443  and  _446
REMARK  182  A    between atoms: _446  and  _447
REMARK  183  A    between atoms: _450  and  _452
REMARK  184  A    between atoms: _452  and  _453
REMARK  185  A    between atoms: _452  and  _455
REMARK  186  A    between atoms: _455  and  _456
REMARK  187  A    between atoms: _459  and  _461
REMARK  188  A    between atoms: _461  and  _462
REMARK  189  A    between atoms: _465  and  _467
REMARK  190  A    between atoms: _467  and  _468
REMARK  191  A    between atoms: _470  and  _472
REMARK  192  A    between atoms: _472  and  _473
REMARK  193  A    between atoms: _475  and  _477
REMARK  194  A    between atoms: _477  and  _478
REMARK  195  A    between atoms: _477  and  _480
REMARK  196  A    between atoms: _480  and  _481
REMARK  197  A    between atoms: _486  and  _487
REMARK  198  A    between atoms: _490  and  _491
REMARK  199  A    between atoms: _496  and  _498
REMARK  200  A    between atoms: _498  and  _499
REMARK  201  A    between atoms: _498  and  _501
REMARK  202  A    between atoms: _501  and  _502
REMARK  203  A    between atoms: _504  and  _506
REMARK  204  A    between atoms: _506  and  _507
REMARK  205  A    between atoms: _506  and  _509
REMARK  206  A    between atoms: _509  and  _510
REMARK  207  A    between atoms: _513  and  _515
REMARK  208  A    between atoms: _515  and  _516
REMARK  209  A    between atoms: _518  and  _520
REMARK  210  A    between atoms: _520  and  _521
REMARK  211  A    between atoms: _520  and  _523
REMARK  212  A    between atoms: _523  and  _524
REMARK  213  A    between atoms: _524  and  _525
REMARK  214  A    between atoms: _530  and  _532
REMARK  215  A    between atoms: _532  and  _533
REMARK  216  A    between atoms: _532  and  _535
REMARK  217  A    between atoms: _535  and  _536
REMARK  218  A    between atoms: _538  and  _540
REMARK  219  A    between atoms: _540  and  _541
REMARK  220  A    between atoms: _540  and  _543
REMARK  221  A    between atoms: _543  and  _544
REMARK  222  A    between atoms: _549  and  _551
REMARK  223  A    between atoms: _551  and  _552
REMARK  224  A    between atoms: _551  and  _554
REMARK  225  A    between atoms: _554  and  _555
REMARK  226  A    between atoms: _557  and  _559
REMARK  227  A    between atoms: _559  and  _560
REMARK  228  A    between atoms: _559  and  _562
REMARK  229  A    between atoms: _562  and  _563
REMARK  230  A    between atoms: _566  and  _568
REMARK  231  A    between atoms: _568  and  _569
REMARK  232  A    between atoms: _568  and  _571
REMARK  233  A    between atoms: _571  and  _572
REMARK  234  A    between atoms: _578  and  _580
REMARK  235  A    between atoms: _580  and  _581
REMARK  236  A    between atoms: _580  and  _583
REMARK  237  A    between atoms: _583  and  _584
REMARK  238  A    between atoms: _586  and  _588
REMARK  239  A    between atoms: _588  and  _589
REMARK  240  A    between atoms: _588  and  _591
REMARK  241  A    between atoms: _591  and  _592
REMARK  242  A    between atoms: _595  and  _597
REMARK  243  A    between atoms: _597  and  _598
REMARK  244  A    between atoms: _597  and  _600
REMARK  245  A    between atoms: _600  and  _601
REMARK  246  A    between atoms: _607  and  _609
REMARK  247  A    between atoms: _609  and  _610
REMARK  248  A    between atoms: _612  and  _614
REMARK  249  A    between atoms: _614  and  _615
REMARK  250  A    between atoms: _614  and  _617
REMARK  251  A    between atoms: _617  and  _618
REMARK                            x       y       z     vdW  Elec       q    Type
REMARK                         _______ _______ _______ _____ _____    ______ ____
ROOT
ATOM      1  C   SER A   2      11.470  10.399  27.067  0.00  0.00    +0.243 C 
ATOM      2  N   ASN A   3      11.838  11.470  27.751  0.00  0.00    -0.297 N 
ATOM      3  H   ASN A   3      11.090  12.077  28.143  0.00  0.00    +0.150 HD
ATOM      4  O   SER A   2      12.219   9.681  26.423  0.00  0.00    -0.273 OA
ENDROOT
BRANCH   2   5
ATOM      5  CA  ASN A   3      13.219  11.855  27.991  0.00  0.00    +0.158 C 
BRANCH   5   6
ATOM      6  C   ASN A   3      13.800  11.251  29.251  0.00  0.00    +0.241 C 
ATOM      7  N   SER A   4      13.149  10.281  29.875  0.00  0.00    -0.296 N 
ATOM      8  H   SER A   4      12.200  10.042  29.525  0.00  0.00    +0.150 HD
ATOM      9  O   ASN A   3      14.876  11.679  29.692  0.00  0.00    -0.273 OA
BRANCH   7  10
ATOM     10  CA  SER A   4      13.654   9.520  31.014  0.00  0.00    +0.166 C 
BRANCH  10  11
ATOM     11  C   SER A   4      13.778  10.369  32.278  0.00  0.00    +0.229 C 
ATOM     12  O   SER A   4      14.441  10.036  33.262  0.00  0.00    -0.286 OA
ENDBRANCH  10  11
BRANCH  10  13
ATOM     13  CB  SER A   4      14.992   8.853  30.690  0.00  0.00    +0.165 C 
BRANCH  13  14
ATOM     14  OG  SER A   4      14.834   7.900  29.623  0.00  0.00    -0.380 OA
ATOM     15  H   SER A   4      14.501   8.364  28.814  0.00  0.00    +0.211 HD
ENDBRANCH  13  14
ENDBRANCH  10  13
ENDBRANCH   7  10
ENDBRANCH   5   6
BRANCH   5  16
ATOM     16  CB  ASN A   3      13.333  13.385  28.015  0.00  0.00    +0.114 C 
BRANCH  16  17
ATOM     17  CG  ASN A   3      12.567  13.964  29.176  0.00  0.00    +0.222 C 
ATOM     18  OD1 ASN A   3      12.040  13.276  30.076  0.00  0.00    -0.275 OA
ATOM     19  ND2 ASN A   3      12.480  15.293  29.176  0.00  0.00    -0.329 N 
ATOM     20 HD21 ASN A   3      11.965  15.780  29.937  0.00  0.00    +0.145 HD
ATOM     21 HD22 ASN A   3      12.927  15.843  28.415  0.00  0.00    +0.145 HD
ENDBRANCH  16  17
ENDBRANCH   5  16
ENDBRANCH   2   5
BRANCH   1  22
ATOM     22  CA  SER A   2       9.962  10.090  27.154  0.00  0.00    +0.178 C 
BRANCH  22  24
ATOM     23  C   GLN A   1       9.303  10.231  24.787  0.00  0.00    +0.238 C 
ATOM     24  N   SER A   2       9.412   9.560  25.916  0.00  0.00    -0.295 N 
ATOM     25  H   SER A   2       9.079   8.575  25.922  0.00  0.00    +0.150 HD
ATOM     26  O   GLN A   1       9.682  11.409  24.694  0.00  0.00    -0.274 OA
BRANCH  23  27
ATOM     27  CA  GLN A   1       8.649   9.523  23.599  0.00  0.00    +0.145 C 
BRANCH  27  28
ATOM     28  N   GLN A   1       8.472  10.509  22.528  0.00  0.00    -0.238 NA
ATOM     29  H   GLN A   1       9.162  11.279  22.413  0.00  0.00    +0.142 HD
ENDBRANCH  27  28
BRANCH  27  30
ATOM     30  CB  GLN A   1       9.436   8.305  23.153  0.00  0.00    +0.036 C 
BRANCH  30  31
ATOM     31  CG  GLN A   1       8.888   7.485  21.993  0.00  0.00    +0.087 C 
BRANCH  31  32
ATOM     32  CD  GLN A   1       7.563   6.814  22.290  0.00  0.00    +0.219 C 
ATOM     33  OE1 GLN A   1       7.092   6.661  23.432  0.00  0.00    -0.275 OA
ATOM     34  NE2 GLN A   1       6.916   6.396  21.188  0.00  0.00    -0.329 N 
ATOM     35 HE21 GLN A   1       5.991   5.928  21.274  0.00  0.00    +0.145 HD
ATOM     36 HE22 GLN A   1       7.340   6.541  20.250  0.00  0.00    +0.145 HD
ENDBRANCH  31  32
ENDBRANCH  30  31
ENDBRANCH  27  30
ENDBRANCH  23  27
ENDBRANCH  22  24
BRANCH  22  37
ATOM     37  CB  SER A   2       9.753   9.039  28.250  0.00  0.00    +0.166 C 
BRANCH  37  38
ATOM     38  OG  SER A   2      10.495   9.328  29.418  0.00  0.00    -0.380 OA
ATOM     39  H   SER A   2      10.214  10.207  29.777  0.00  0.00    +0.211 HD
ENDBRANCH  37  38
ENDBRANCH  22  37
ENDBRANCH   1  22
TORSDOF 17
REMARK  Name = ../refined-set-2016/1bxq/1bxq_pocket.pdb
REMARK  251 active torsions:
REMARK  status: ('A' for Active; 'I' for Inactive)
REMARK    1  A    between atoms: _1  and  _3
REMARK    2  A    between atoms: _3  and  _4
REMARK    3  A    between atoms: _3  and  _6
REMARK    4  A    between atoms: _6  and  _7
REMARK    5  A    between atoms: _10  and  _12
REMARK    6  A    between atoms: _12  and  _13
REMARK    7  A    between atoms: _16  and  _18
REMARK    8  A    between atoms: _18  and  _19
REMARK    9  A    between atoms: _18  and  _21
REMARK   10  A    between atoms: _21  and  _22
REMARK   11  A    between atoms: _27  and  _29
REMARK   12  A    between atoms: _29  and  _30
REMARK   13  A    between atoms: _29  and  _32
REMARK   14  A    between atoms: _32  and  _33
REMARK   15  A    between atoms: _36  and  _38
REMARK   16  A    between atoms: _38  and  _39
REMARK   17  A    between atoms: _38  and  _41
REMARK   18  A    between atoms: _41  and  _42
REMARK   19  A    between atoms: _42  and  _43
REMARK   20  A    between atoms: _46  and  _48
REMARK   21  A    between atoms: _48  and  _49
REMARK   22  A    between atoms: _48  and  _51
REMARK   23  A    between atoms: _51  and  _52
REMARK   24  A    between atoms: _52  and  _53
REMARK   25  A    between atoms: _56  and  _58
REMARK   26  A    between atoms: _58  and  _59
REMARK   27  A    between atoms: _58  and  _61
REMARK   28  A    between atoms: _61  and  _62
REMARK   29  A    between atoms: _67  and  _68
REMARK   30  A    between atoms: _70  and  _72
REMARK   31  A    between atoms: _72  and  _73
REMARK   32  A    between atoms: _72  and  _75
REMARK   33  A    between atoms: _75  and  _76
REMARK   34  A    between atoms: _81  and  _83
REMARK   35  A    between atoms: _83  and  _84
REMARK   36  A    between atoms: _83  and  _86
REMARK   37  A    between atoms: _86  and  _87
REMARK   38  A    between atoms: _93  and  _95
REMARK   39  A    between atoms: _95  and  _96
REMARK   40  A    between atoms: _95  and  _98
REMARK   41  A    between atoms: _98  and  _99
REMARK   42  A    between atoms: _102  and  _104
REMARK   43  A    between atoms: _104  and  _105
REMARK   44  A    between atoms: _104  and  _107
REMARK   45  A    between atoms: _107  and  _108
REMARK   46  A    between atoms: _111  and  _113
REMARK   47  A    between atoms: _113  and  _114
REMARK   48  A    between atoms: _116  and  _118
REMARK   49  A    between atoms: _118  and  _119
REMARK   50  A    between atoms: _118  and  _121
REMARK   51  A    between atoms: _121  and  _122
REMARK   52  A    between atoms: _124  and  _126
REMARK   53  A    between atoms: _126  and  _127
REMARK   54  A    between atoms: _130  and  _132
REMARK   55  A    between atoms: _132  and  _133
REMARK   56  A    between atoms: _132  and  _135
REMARK   57  A    between atoms: _135  and  _136
REMARK   58  A    between atoms: _139  and  _141
REMARK   59  A    between atoms: _141  and  _142
REMARK   60  A    between atoms: _141  and  _144
REMARK   61  A    between atoms: _144  and  _145
REMARK   62  A    between atoms: _155  and  _157
REMARK   63  A    between atoms: _157  and  _158
REMARK   64  A    between atoms: _157  and  _160
REMARK   65  A    between atoms: _160  and  _161
REMARK   66  A    between atoms: _164  and  _166
REMARK   67  A    between atoms: _166  and  _167
REMARK   68  A    between atoms: _166  and  _169
REMARK   69  A    between atoms: _169  and  _170
REMARK   70  A    between atoms: _172  and  _174
REMARK   71  A    between atoms: _174  and  _175
REMARK   72  A    between atoms: _174  and  _177
REMARK   73  A    between atoms: _177  and  _178
REMARK   74  A    between atoms: _183  and  _184
REMARK   75  A    between atoms: _186  and  _188
REMARK   76  A    between atoms: _188  and  _189
REMARK   77  A    between atoms: _191  and  _193
REMARK   78  A    between atoms: _193  and  _194
REMARK   79  A    between atoms: _193  and  _196
REMARK   80  A    between atoms: _196  and  _197
REMARK   81  A    between atoms: _200  and  _202
REMARK   82  A    between atoms: _202  and  _203
REMARK   83  A    between atoms: _205  and  _207
REMARK   84  A    between atoms: _207  and  _208
REMARK   85  A    between atoms: _207  and  _210
REMARK   86  A    between atoms: _210  and  _211
REMARK   87  A    between atoms: _213  and  _215
REMARK   88  A    between atoms: _215  and  _216
REMARK   89  A    between atoms: _215  and  _218
REMARK   90  A    between atoms: _218  and  _219
REMARK   91  A    between atoms: _221  and  _223
REMARK   92  A    between atoms: _223  and  _224
REMARK   93  A    between atoms: _223  and  _226
REMARK   94  A    between atoms: _226  and  _227
REMARK   95  A    between atoms: _229  and  _231
REMARK   96  A    between atoms: _231  and  _232
REMARK   97  A    between atoms: _231  and  _234
REMARK   98  A    between atoms: _234  and  _235
REMARK   99  A    between atoms: _235  and  _236
REMARK  100  A    between atoms: _241  and  _243
REMARK  101  A    between atoms: _243  and  _244
REMARK  102  A    between atoms: _243  and  _246
REMARK  103  A    between atoms: _246  and  _247
REMARK  104  A    between atoms: _253  and  _255
REMARK  105  A    between atoms: _255  and  _256
REMARK  106  A    between atoms: _255  and  _258
REMARK  107  A    between atoms: _258  and  _259
REMARK  108  A    between atoms: _262  and  _264
REMARK  109  A    between atoms: _264  and  _265
REMARK  110  A    between atoms: _264  and  _267
REMARK  111  A    between atoms: _267  and  _268
REMARK  112  A    between atoms: _273  and  _275
REMARK  113  A    between atoms: _275  and  _276
REMARK  114  A    between atoms: _275  and  _278
REMARK  115  A    between atoms: _278  and  _279
REMARK  116  A    between atoms: _284  and  _286
REMARK  117  A    between atoms: _286  and  _287
REMARK  118  A    between atoms: _289  and  _291
REMARK  119  A    between atoms: _291  and  _292
REMARK  120  A    between atoms: _291  and  _294
REMARK  121  A    between atoms: _294  and  _295
REMARK  122  A    between atoms: _298  and  _300
REMARK  123  A    between atoms: _300  and  _301
REMARK  124  A    between atoms: _300  and  _303
REMARK  125  A    between atoms: _303  and  _304
REMARK  126  A    between atoms: _307  and  _309
REMARK  127  A    between atoms: _309  and  _310
REMARK  128  A    between atoms: _312  and  _314
REMARK  129  A    between atoms: _314  and  _315
REMARK  130  A    between atoms: _314  and  _317
REMARK  131  A    between atoms: _317  and  _318
REMARK  132  A    between atoms: _321  and  _323
REMARK  133  A    between atoms: _323  and  _324
REMARK  134  A    between atoms: _327  and  _329
REMARK  135  A    between atoms: _329  and  _330
REMARK  136  A    between atoms: _329  and  _332
REMARK  137  A    between atoms: _332  and  _333
REMARK  138  A    between atoms: _336  and  _338
REMARK  139  A    between atoms: _338  and  _339
REMARK  140  A    between atoms: _338  and  _341
REMARK  141  A    between atoms: _341  and  _342
REMARK  142  A    between atoms: _342  and  _343
REMARK  143  A    between atoms: _348  and  _350
REMARK  144  A    between atoms: _350  and  _351
REMARK  145  A    between atoms: _350  and  _353
REMARK  146  A    between atoms: _353  and  _354
REMARK  147  A    between atoms: _360  and  _362
REMARK  148  A    between atoms: _362  and  _363
REMARK  149  A    between atoms: _362  and  _365
REMARK  150  A    between atoms: _365  and  _366
REMARK  151  A    between atoms: _376  and  _378
REMARK  152  A    between atoms: _378  and  _379
REMARK  153  A    between atoms: _378  and  _381
REMARK  154  A    between atoms: _381  and  _382
REMARK  155  A    between atoms: _385  and  _387
REMARK  156  A    between atoms: _387  and  _388
REMARK  157  A    between atoms: _391  and  _393
REMARK  158  A    between atoms: _393  and  _394
REMARK  159  A    between atoms: _393  and  _396
REMARK  160  A    between atoms: _396  and  _397
REMARK  161  A    between atoms: _400  and  _402
REMARK  162  A    between atoms: _402  and  _403
REMARK  163  A    between atoms: _402  and  _405
REMARK  164  A    between atoms: _405  and  _406
REMARK  165  A    between atoms: _409  and  _411
REMARK  166  A    between atoms: _411  and  _412
REMARK  167  A    between atoms: _414  and  _416
REMARK  168  A    between atoms: _416  and  _417
REMARK  169  A    between atoms: _416  and  _419
REMARK  170  A    between atoms: _419  and  _420
REMARK  171  A    between atoms: _423  and  _425
REMARK  172  A    between atoms: _425  and  _426
REMARK  173  A    between atoms: _425  and  _428
REMARK  174  A    between atoms: _428  and  _429
REMARK  175  A    between atoms: _432  and  _434
REMARK  176  A    between atoms: _434  and  _435
REMARK  177  A    between atoms: _434  and  _437
REMARK  178  A    between atoms: _437  and  _438
REMARK  179  A    between atoms: _441  and  _443
REMARK  180  A    between atoms: _443  and  _444
REMARK  181  A    between atoms: _443  and  _446
REMARK  182  A    between atoms: _446  and  _447
REMARK  183  A    between atoms: _450  and  _452
REMARK  184  A    between atoms: _452  and  _453
REMARK  185  A    between atoms: _452  and  _455
REMARK  186  A    between atoms: _455  and  _456
REMARK  187  A    between atoms: _459  and  _461
REMARK  188  A    between atoms: _461  and  _462
REMARK  189  A    between atoms: _465  and  _467
REMARK  190  A    between atoms: _467  and  _468
REMARK  191  A    between atoms: _470  and  _472
REMARK  192  A    between atoms: _472  and  _473
REMARK  193  A    between atoms: _475  and  _477
REMARK  194  A    between atoms: _477  and  _478
REMARK  195  A    between atoms: _477  and  _480
REMARK  196  A    between atoms: _480  and  _481
REMARK  197  A    between atoms: _486  and  _487
REMARK  198  A    between atoms: _490  and  _491
REMARK  199  A    between atoms: _496  and  _498
REMARK  200  A    between atoms: _498  and  _499
REMARK  201  A    between atoms: _498  and  _501
REMARK  202  A    between atoms: _501  and  _502
REMARK  203  A    between atoms: _504  and  _506
REMARK  204  A    between atoms: _506  and  _507
REMARK  205  A    between atoms: _506  and  _509
REMARK  206  A    between atoms: _509  and  _510
REMARK  207  A    between atoms: _513  and  _515
REMARK  208  A    between atoms: _515  and  _516
REMARK  209  A    between atoms: _518  and  _520
REMARK  210  A    between atoms: _520  and  _521
REMARK  211  A    between atoms: _520  and  _523
REMARK  212  A    between atoms: _523  and  _524
REMARK  213  A    between atoms: _524  and  _525
REMARK  214  A    between atoms: _530  and  _532
REMARK  215  A    between atoms: _532  and  _533
REMARK  216  A    between atoms: _532  and  _535
REMARK  217  A    between atoms: _535  and  _536
REMARK  218  A    between atoms: _538  and  _540
REMARK  219  A    between atoms: _540  and  _541
REMARK  220  A    between atoms: _540  and  _543
REMARK  221  A    between atoms: _543  and  _544
REMARK  222  A    between atoms: _549  and  _551
REMARK  223  A    between atoms: _551  and  _552
REMARK  224  A    between atoms: _551  and  _554
REMARK  225  A    between atoms: _554  and  _555
REMARK  226  A    between atoms: _557  and  _559
REMARK  227  A    between atoms: _559  and  _560
REMARK  228  A    between atoms: _559  and  _562
REMARK  229  A    between atoms: _562  and  _563
REMARK  230  A    between atoms: _566  and  _568
REMARK  231  A    between atoms: _568  and  _569
REMARK  232  A    between atoms: _568  and  _571
REMARK  233  A    between atoms: _571  and  _572
REMARK  234  A    between atoms: _578  and  _580
REMARK  235  A    between atoms: _580  and  _581
REMARK  236  A    between atoms: _580  and  _583
REMARK  237  A    between atoms: _583  and  _584
REMARK  238  A    between atoms: _586  and  _588
REMARK  239  A    between atoms: _588  and  _589
REMARK  240  A    between atoms: _588  and  _591
REMARK  241  A    between atoms: _591  and  _592
REMARK  242  A    between atoms: _595  and  _597
REMARK  243  A    between atoms: _597  and  _598
REMARK  244  A    between atoms: _597  and  _600
REMARK  245  A    between atoms: _600  and  _601
REMARK  246  A    between atoms: _607  and  _609
REMARK  247  A    between atoms: _609  and  _610
REMARK  248  A    between atoms: _612  and  _614
REMARK  249  A    between atoms: _614  and  _615
REMARK  250  A    between atoms: _614  and  _617
REMARK  251  A    between atoms: _617  and  _618
REMARK                            x       y       z     vdW  Elec       q    Type
REMARK                         _______ _______ _______ _____ _____    ______ ____
ROOT
ATOM      1  CA  ILE A   1      16.191  14.448  32.671  0.00  0.00    +0.101 C 
ENDROOT
BRANCH   1   2
ATOM      2  N   ILE A   1      15.016  13.582  32.594  0.00  0.00    -0.244 NA
ATOM      3  H   ILE A   1      14.806  13.128  31.682  0.00  0.00    +0.141 HD
ENDBRANCH   1   2
BRANCH   1   4
ATOM      4  C   ILE A   1      15.892  15.936  32.769  0.00  0.00    +0.199 C 
ATOM      5  O   ILE A   1      16.880  16.622  33.028  0.00  0.00    -0.219 OA
ENDBRANCH   1   4
BRANCH   1   6
ATOM      6  CB  ILE A   1      17.146  14.282  31.480  0.00  0.00    +0.018 C 
ATOM      7  CG2 ILE A   1      17.684  12.848  31.458  0.00  0.00    +0.002 C 
BRANCH   6   8
ATOM      8  CG1 ILE A   1      16.530  14.703  30.141  0.00  0.00    +0.001 C 
ATOM      9  CD1 ILE A   1      17.396  14.467  28.940  0.00  0.00    +0.000 C 
ENDBRANCH   6   8
ENDBRANCH   1   6
TORSDOF 4
REMARK  Name = ../refined-set-2016/1bxq/1bxq_pocket.pdb
REMARK  251 active torsions:
REMARK  status: ('A' for Active; 'I' for Inactive)
REMARK    1  A    between atoms: _1  and  _3
REMARK    2  A    between atoms: _3  and  _4
REMARK    3  A    between atoms: _3  and  _6
REMARK    4  A    between atoms: _6  and  _7
REMARK    5  A    between atoms: _10  and  _12
REMARK    6  A    between atoms: _12  and  _13
REMARK    7  A    between atoms: _16  and  _18
REMARK    8  A    between atoms: _18  and  _19
REMARK    9  A    between atoms: _18  and  _21
REMARK   10  A    between atoms: _21  and  _22
REMARK   11  A    between atoms: _27  and  _29
REMARK   12  A    between atoms: _29  and  _30
REMARK   13  A    between atoms: _29  and  _32
REMARK   14  A    between atoms: _32  and  _33
REMARK   15  A    between atoms: _36  and  _38
REMARK   16  A    between atoms: _38  and  _39
REMARK   17  A    between atoms: _38  and  _41
REMARK   18  A    between atoms: _41  and  _42
REMARK   19  A    between atoms: _42  and  _43
REMARK   20  A    between atoms: _46  and  _48
REMARK   21  A    between atoms: _48  and  _49
REMARK   22  A    between atoms: _48  and  _51
REMARK   23  A    between atoms: _51  and  _52
REMARK   24  A    between atoms: _52  and  _53
REMARK   25  A    between atoms: _56  and  _58
REMARK   26  A    between atoms: _58  and  _59
REMARK   27  A    between atoms: _58  and  _61
REMARK   28  A    between atoms: _61  and  _62
REMARK   29  A    between atoms: _67  and  _68
REMARK   30  A    between atoms: _70  and  _72
REMARK   31  A    between atoms: _72  and  _73
REMARK   32  A    between atoms: _72  and  _75
REMARK   33  A    between atoms: _75  and  _76
REMARK   34  A    between atoms: _81  and  _83
REMARK   35  A    between atoms: _83  and  _84
REMARK   36  A    between atoms: _83  and  _86
REMARK   37  A    between atoms: _86  and  _87
REMARK   38  A    between atoms: _93  and  _95
REMARK   39  A    between atoms: _95  and  _96
REMARK   40  A    between atoms: _95  and  _98
REMARK   41  A    between atoms: _98  and  _99
REMARK   42  A    between atoms: _102  and  _104
REMARK   43  A    between atoms: _104  and  _105
REMARK   44  A    between atoms: _104  and  _107
REMARK   45  A    between atoms: _107  and  _108
REMARK   46  A    between atoms: _111  and  _113
REMARK   47  A    between atoms: _113  and  _114
REMARK   48  A    between atoms: _116  and  _118
REMARK   49  A    between atoms: _118  and  _119
REMARK   50  A    between atoms: _118  and  _121
REMARK   51  A    between atoms: _121  and  _122
REMARK   52  A    between atoms: _124  and  _126
REMARK   53  A    between atoms: _126  and  _127
REMARK   54  A    between atoms: _130  and  _132
REMARK   55  A    between atoms: _132  and  _133
REMARK   56  A    between atoms: _132  and  _135
REMARK   57  A    between atoms: _135  and  _136
REMARK   58  A    between atoms: _139  and  _141
REMARK   59  A    between atoms: _141  and  _142
REMARK   60  A    between atoms: _141  and  _144
REMARK   61  A    between atoms: _144  and  _145
REMARK   62  A    between atoms: _155  and  _157
REMARK   63  A    between atoms: _157  and  _158
REMARK   64  A    between atoms: _157  and  _160
REMARK   65  A    between atoms: _160  and  _161
REMARK   66  A    between atoms: _164  and  _166
REMARK   67  A    between atoms: _166  and  _167
REMARK   68  A    between atoms: _166  and  _169
REMARK   69  A    between atoms: _169  and  _170
REMARK   70  A    between atoms: _172  and  _174
REMARK   71  A    between atoms: _174  and  _175
REMARK   72  A    between atoms: _174  and  _177
REMARK   73  A    between atoms: _177  and  _178
REMARK   74  A    between atoms: _183  and  _184
REMARK   75  A    between atoms: _186  and  _188
REMARK   76  A    between atoms: _188  and  _189
REMARK   77  A    between atoms: _191  and  _193
REMARK   78  A    between atoms: _193  and  _194
REMARK   79  A    between atoms: _193  and  _196
REMARK   80  A    between atoms: _196  and  _197
REMARK   81  A    between atoms: _200  and  _202
REMARK   82  A    between atoms: _202  and  _203
REMARK   83  A    between atoms: _205  and  _207
REMARK   84  A    between atoms: _207  and  _208
REMARK   85  A    between atoms: _207  and  _210
REMARK   86  A    between atoms: _210  and  _211
REMARK   87  A    between atoms: _213  and  _215
REMARK   88  A    between atoms: _215  and  _216
REMARK   89  A    between atoms: _215  and  _218
REMARK   90  A    between atoms: _218  and  _219
REMARK   91  A    between atoms: _221  and  _223
REMARK   92  A    between atoms: _223  and  _224
REMARK   93  A    between atoms: _223  and  _226
REMARK   94  A    between atoms: _226  and  _227
REMARK   95  A    between atoms: _229  and  _231
REMARK   96  A    between atoms: _231  and  _232
REMARK   97  A    between atoms: _231  and  _234
REMARK   98  A    between atoms: _234  and  _235
REMARK   99  A    between atoms: _235  and  _236
REMARK  100  A    between atoms: _241  and  _243
REMARK  101  A    between atoms: _243  and  _244
REMARK  102  A    between atoms: _243  and  _246
REMARK  103  A    between atoms: _246  and  _247
REMARK  104  A    between atoms: _253  and  _255
REMARK  105  A    between atoms: _255  and  _256
REMARK  106  A    between atoms: _255  and  _258
REMARK  107  A    between atoms: _258  and  _259
REMARK  108  A    between atoms: _262  and  _264
REMARK  109  A    between atoms: _264  and  _265
REMARK  110  A    between atoms: _264  and  _267
REMARK  111  A    between atoms: _267  and  _268
REMARK  112  A    between atoms: _273  and  _275
REMARK  113  A    between atoms: _275  and  _276
REMARK  114  A    between atoms: _275  and  _278
REMARK  115  A    between atoms: _278  and  _279
REMARK  116  A    between atoms: _284  and  _286
REMARK  117  A    between atoms: _286  and  _287
REMARK  118  A    between atoms: _289  and  _291
REMARK  119  A    between atoms: _291  and  _292
REMARK  120  A    between atoms: _291  and  _294
REMARK  121  A    between atoms: _294  and  _295
REMARK  122  A    between atoms: _298  and  _300
REMARK  123  A    between atoms: _300  and  _301
REMARK  124  A    between atoms: _300  and  _303
REMARK  125  A    between atoms: _303  and  _304
REMARK  126  A    between atoms: _307  and  _309
REMARK  127  A    between atoms: _309  and  _310
REMARK  128  A    between atoms: _312  and  _314
REMARK  129  A    between atoms: _314  and  _315
REMARK  130  A    between atoms: _314  and  _317
REMARK  131  A    between atoms: _317  and  _318
REMARK  132  A    between atoms: _321  and  _323
REMARK  133  A    between atoms: _323  and  _324
REMARK  134  A    between atoms: _327  and  _329
REMARK  135  A    between atoms: _329  and  _330
REMARK  136  A    between atoms: _329  and  _332
REMARK  137  A    between atoms: _332  and  _333
REMARK  138  A    between atoms: _336  and  _338
REMARK  139  A    between atoms: _338  and  _339
REMARK  140  A    between atoms: _338  and  _341
REMARK  141  A    between atoms: _341  and  _342
REMARK  142  A    between atoms: _342  and  _343
REMARK  143  A    between atoms: _348  and  _350
REMARK  144  A    between atoms: _350  and  _351
REMARK  145  A    between atoms: _350  and  _353
REMARK  146  A    between atoms: _353  and  _354
REMARK  147  A    between atoms: _360  and  _362
REMARK  148  A    between atoms: _362  and  _363
REMARK  149  A    between atoms: _362  and  _365
REMARK  150  A    between atoms: _365  and  _366
REMARK  151  A    between atoms: _376  and  _378
REMARK  152  A    between atoms: _378  and  _379
REMARK  153  A    between atoms: _378  and  _381
REMARK  154  A    between atoms: _381  and  _382
REMARK  155  A    between atoms: _385  and  _387
REMARK  156  A    between atoms: _387  and  _388
REMARK  157  A    between atoms: _391  and  _393
REMARK  158  A    between atoms: _393  and  _394
REMARK  159  A    between atoms: _393  and  _396
REMARK  160  A    between atoms: _396  and  _397
REMARK  161  A    between atoms: _400  and  _402
REMARK  162  A    between atoms: _402  and  _403
REMARK  163  A    between atoms: _402  and  _405
REMARK  164  A    between atoms: _405  and  _406
REMARK  165  A    between atoms: _409  and  _411
REMARK  166  A    between atoms: _411  and  _412
REMARK  167  A    between atoms: _414  and  _416
REMARK  168  A    between atoms: _416  and  _417
REMARK  169  A    between atoms: _416  and  _419
REMARK  170  A    between atoms: _419  and  _420
REMARK  171  A    between atoms: _423  and  _425
REMARK  172  A    between atoms: _425  and  _426
REMARK  173  A    between atoms: _425  and  _428
REMARK  174  A    between atoms: _428  and  _429
REMARK  175  A    between atoms: _432  and  _434
REMARK  176  A    between atoms: _434  and  _435
REMARK  177  A    between atoms: _434  and  _437
REMARK  178  A    between atoms: _437  and  _438
REMARK  179  A    between atoms: _441  and  _443
REMARK  180  A    between atoms: _443  and  _444
REMARK  181  A    between atoms: _443  and  _446
REMARK  182  A    between atoms: _446  and  _447
REMARK  183  A    between atoms: _450  and  _452
REMARK  184  A    between atoms: _452  and  _453
REMARK  185  A    between atoms: _452  and  _455
REMARK  186  A    between atoms: _455  and  _456
REMARK  187  A    between atoms: _459  and  _461
REMARK  188  A    between atoms: _461  and  _462
REMARK  189  A    between atoms: _465  and  _467
REMARK  190  A    between atoms: _467  and  _468
REMARK  191  A    between atoms: _470  and  _472
REMARK  192  A    between atoms: _472  and  _473
REMARK  193  A    between atoms: _475  and  _477
REMARK  194  A    between atoms: _477  and  _478
REMARK  195  A    between atoms: _477  and  _480
REMARK  196  A    between atoms: _480  and  _481
REMARK  197  A    between atoms: _486  and  _487
REMARK  198  A    between atoms: _490  and  _491
REMARK  199  A    between atoms: _496  and  _498
REMARK  200  A    between atoms: _498  and  _499
REMARK  201  A    between atoms: _498  and  _501
REMARK  202  A    between atoms: _501  and  _502
REMARK  203  A    between atoms: _504  and  _506
REMARK  204  A    between atoms: _506  and  _507
REMARK  205  A    between atoms: _506  and  _509
REMARK  206  A    between atoms: _509  and  _510
REMARK  207  A    between atoms: _513  and  _515
REMARK  208  A    between atoms: _515  and  _516
REMARK  209  A    between atoms: _518  and  _520
REMARK  210  A    between atoms: _520  and  _521
REMARK  211  A    between atoms: _520  and  _523
REMARK  212  A    between atoms: _523  and  _524
REMARK  213  A    between atoms: _524  and  _525
REMARK  214  A    between atoms: _530  and  _532
REMARK  215  A    between atoms: _532  and  _533
REMARK  216  A    between atoms: _532  and  _535
REMARK  217  A    between atoms: _535  and  _536
REMARK  218  A    between atoms: _538  and  _540
REMARK  219  A    between atoms: _540  and  _541
REMARK  220  A    between atoms: _540  and  _543
REMARK  221  A    between atoms: _543  and  _544
REMARK  222  A    between atoms: _549  and  _551
REMARK  223  A    between atoms: _551  and  _552
REMARK  224  A    between atoms: _551  and  _554
REMARK  225  A    between atoms: _554  and  _555
REMARK  226  A    between atoms: _557  and  _559
REMARK  227  A    between atoms: _559  and  _560
REMARK  228  A    between atoms: _559  and  _562
REMARK  229  A    between atoms: _562  and  _563
REMARK  230  A    between atoms: _566  and  _568
REMARK  231  A    between atoms: _568  and  _569
REMARK  232  A    between atoms: _568  and  _571
REMARK  233  A    between atoms: _571  and  _572
REMARK  234  A    between atoms: _578  and  _580
REMARK  235  A    between atoms: _580  and  _581
REMARK  236  A    between atoms: _580  and  _583
REMARK  237  A    between atoms: _583  and  _584
REMARK  238  A    between atoms: _586  and  _588
REMARK  239  A    between atoms: _588  and  _589
REMARK  240  A    between atoms: _588  and  _591
REMARK  241  A    between atoms: _591  and  _592
REMARK  242  A    between atoms: _595  and  _597
REMARK  243  A    between atoms: _597  and  _598
REMARK  244  A    between atoms: _597  and  _600
REMARK  245  A    between atoms: _600  and  _601
REMARK  246  A    between atoms: _607  and  _609
REMARK  247  A    between atoms: _609  and  _610
REMARK  248  A    between atoms: _612  and  _614
REMARK  249  A    between atoms: _614  and  _615
REMARK  250  A    between atoms: _614  and  _617
REMARK  251  A    between atoms: _617  and  _618
REMARK                            x       y       z     vdW  Elec       q    Type
REMARK                         _______ _______ _______ _____ _____    ______ ____
ROOT
ATOM      1  C   ILE A   3      15.040  16.418  21.653  0.00  0.00    +0.241 C 
ATOM      2  O   ILE A   3      14.145  15.641  21.289  0.00  0.00    -0.273 OA
ATOM      3  N   PHE A   4      15.404  17.474  20.940  0.00  0.00    -0.297 N 
ATOM      4  H   PHE A   4      16.143  18.102  21.315  0.00  0.00    +0.150 HD
ENDROOT
BRANCH   1   5
ATOM      5  CA  ILE A   3      15.763  16.288  22.994  0.00  0.00    +0.149 C 
BRANCH   5   8
ATOM      6  C   SER A   2      15.000  17.745  24.790  0.00  0.00    +0.243 C 
ATOM      7  O   SER A   2      15.948  18.519  24.648  0.00  0.00    -0.273 OA
ATOM      8  N   ILE A   3      14.822  16.658  24.040  0.00  0.00    -0.297 N 
ATOM      9  H   ILE A   3      13.989  16.059  24.207  0.00  0.00    +0.150 HD
BRANCH   6  10
ATOM     10  CA  SER A   2      13.942  17.942  25.874  0.00  0.00    +0.178 C 
BRANCH  10  13
ATOM     11  C   PHE A   1      14.707  18.125  28.129  0.00  0.00    +0.239 C 
ATOM     12  O   PHE A   1      14.656  16.891  28.284  0.00  0.00    -0.274 OA
ATOM     13  N   SER A   2      14.465  18.736  26.988  0.00  0.00    -0.295 N 
ATOM     14  H   SER A   2      14.641  19.755  26.881  0.00  0.00    +0.150 HD
BRANCH  11  15
ATOM     15  CA  PHE A   1      15.008  19.075  29.298  0.00  0.00    +0.149 C 
BRANCH  15  16
ATOM     16  N   PHE A   1      14.934  18.292  30.517  0.00  0.00    -0.238 NA
ATOM     17  H   PHE A   1      15.067  17.264  30.438  0.00  0.00    +0.142 HD
ENDBRANCH  15  16
BRANCH  15  18
ATOM     18  CB  PHE A   1      16.343  19.786  29.114  0.00  0.00    +0.053 C 
BRANCH  18  19
ATOM     19  CG  PHE A   1      17.570  18.913  28.943  0.00  0.00    -0.020 A 
ATOM     20  CD2 PHE A   1      18.227  18.442  30.080  0.00  0.00    -0.004 A 
ATOM     21  CE2 PHE A   1      19.361  17.697  29.964  0.00  0.00    -0.000 A 
ATOM     22  CZ  PHE A   1      19.874  17.397  28.736  0.00  0.00    -0.000 A 
ATOM     23  CE1 PHE A   1      19.229  17.837  27.589  0.00  0.00    -0.000 A 
ATOM     24  CD1 PHE A   1      18.076  18.582  27.709  0.00  0.00    -0.004 A 
ENDBRANCH  18  19
ENDBRANCH  15  18
ENDBRANCH  11  15
ENDBRANCH  10  13
BRANCH  10  25
ATOM     25  CB  SER A   2      12.655  18.554  25.324  0.00  0.00    +0.166 C 
BRANCH  25  26
ATOM     26  OG  SER A   2      11.610  18.455  26.290  0.00  0.00    -0.380 OA
ATOM     27  H   SER A   2      11.875  18.940  27.112  0.00  0.00    +0.211 HD
ENDBRANCH  25  26
ENDBRANCH  10  25
ENDBRANCH   6  10
ENDBRANCH   5   8
BRANCH   5  28
ATOM     28  CB  ILE A   3      16.294  14.862  23.137  0.00  0.00    +0.027 C 
ATOM     29  CG2 ILE A   3      17.375  14.629  22.098  0.00  0.00    +0.002 C 
BRANCH  28  30
ATOM     30  CG1 ILE A   3      16.790  14.505  24.542  0.00  0.00    +0.002 C 
ATOM     31  CD1 ILE A   3      17.808  15.477  25.068  0.00  0.00    +0.000 C 
ENDBRANCH  28  30
ENDBRANCH   5  28
ENDBRANCH   1   5
BRANCH   3  32
ATOM     32  CA  PHE A   4      14.810  17.784  19.658  0.00  0.00    +0.153 C 
BRANCH  32  33
ATOM     33  C   PHE A   4      15.591  17.035  18.577  0.00  0.00    +0.241 C 
ATOM     34  N   GLY A   5      15.231  15.752  18.459  0.00  0.00    -0.295 N 
ATOM     35  H   GLY A   5      14.448  15.438  19.067  0.00  0.00    +0.150 HD
ATOM     36  O   PHE A   4      16.493  17.501  17.891  0.00  0.00    -0.273 OA
BRANCH  34  37
ATOM     37  CA  GLY A   5      15.802  14.751  17.587  0.00  0.00    +0.176 C 
BRANCH  37  38
ATOM     38  C   GLY A   5      15.195  14.774  16.200  0.00  0.00    +0.243 C 
ATOM     39  O   GLY A   5      14.529  15.729  15.793  0.00  0.00    -0.273 OA
ATOM     40  N   ASP A   6      15.405  13.710  15.421  0.00  0.00    -0.297 N 
ATOM     41  H   ASP A   6      15.739  12.827  15.858  0.00  0.00    +0.150 HD
BRANCH  40  42
ATOM     42  CA  ASP A   6      15.183  13.740  13.982  0.00  0.00    +0.148 C 
BRANCH  42  43
ATOM     43  C   ASP A   6      13.714  13.921  13.645  0.00  0.00    +0.227 C 
ATOM     44  O   ASP A   6      13.412  14.566  12.642  0.00  0.00    -0.286 OA
ENDBRANCH  42  43
BRANCH  42  45
ATOM     45  CB  ASP A   6      15.720  12.477  13.305  0.00  0.00    +0.142 C 
BRANCH  45  46
ATOM     46  CG  ASP A   6      17.202  12.290  13.525  0.00  0.00    +0.367 C 
ATOM     47  OD2 ASP A   6      17.917  13.272  13.816  0.00  0.00    -0.246 OA
ATOM     48  OD1 ASP A   6      17.680  11.152  13.418  0.00  0.00    -0.246 OA
ENDBRANCH  45  46
ENDBRANCH  42  45
ENDBRANCH  40  42
ENDBRANCH  37  38
ENDBRANCH  34  37
ENDBRANCH  32  33
BRANCH  32  49
ATOM     49  CB  PHE A   4      14.794  19.280  19.345  0.00  0.00    +0.055 C 
BRANCH  49  50
ATOM     50  CG  PHE A   4      13.775  20.042  20.187  0.00  0.00    -0.020 A 
ATOM     51  CD2 PHE A   4      14.081  20.540  21.439  0.00  0.00    -0.004 A 
ATOM     52  CE2 PHE A   4      13.132  21.171  22.208  0.00  0.00    -0.000 A 
ATOM     53  CZ  PHE A   4      11.865  21.355  21.716  0.00  0.00    -0.000 A 
ATOM     54  CE1 PHE A   4      11.525  20.888  20.473  0.00  0.00    -0.000 A 
ATOM     55  CD1 PHE A   4      12.489  20.248  19.705  0.00  0.00    -0.004 A 
ENDBRANCH  49  50
ENDBRANCH  32  49
ENDBRANCH   3  32
TORSDOF 22
REMARK  Name = ../refined-set-2016/1bxq/1bxq_pocket.pdb
REMARK  251 active torsions:
REMARK  status: ('A' for Active; 'I' for Inactive)
REMARK    1  A    between atoms: _1  and  _3
REMARK    2  A    between atoms: _3  and  _4
REMARK    3  A    between atoms: _3  and  _6
REMARK    4  A    between atoms: _6  and  _7
REMARK    5  A    between atoms: _10  and  _12
REMARK    6  A    between atoms: _12  and  _13
REMARK    7  A    between atoms: _16  and  _18
REMARK    8  A    between atoms: _18  and  _19
REMARK    9  A    between atoms: _18  and  _21
REMARK   10  A    between atoms: _21  and  _22
REMARK   11  A    between atoms: _27  and  _29
REMARK   12  A    between atoms: _29  and  _30
REMARK   13  A    between atoms: _29  and  _32
REMARK   14  A    between atoms: _32  and  _33
REMARK   15  A    between atoms: _36  and  _38
REMARK   16  A    between atoms: _38  and  _39
REMARK   17  A    between atoms: _38  and  _41
REMARK   18  A    between atoms: _41  and  _42
REMARK   19  A    between atoms: _42  and  _43
REMARK   20  A    between atoms: _46  and  _48
REMARK   21  A    between atoms: _48  and  _49
REMARK   22  A    between atoms: _48  and  _51
REMARK   23  A    between atoms: _51  and  _52
REMARK   24  A    between atoms: _52  and  _53
REMARK   25  A    between atoms: _56  and  _58
REMARK   26  A    between atoms: _58  and  _59
REMARK   27  A    between atoms: _58  and  _61
REMARK   28  A    between atoms: _61  and  _62
REMARK   29  A    between atoms: _67  and  _68
REMARK   30  A    between atoms: _70  and  _72
REMARK   31  A    between atoms: _72  and  _73
REMARK   32  A    between atoms: _72  and  _75
REMARK   33  A    between atoms: _75  and  _76
REMARK   34  A    between atoms: _81  and  _83
REMARK   35  A    between atoms: _83  and  _84
REMARK   36  A    between atoms: _83  and  _86
REMARK   37  A    between atoms: _86  and  _87
REMARK   38  A    between atoms: _93  and  _95
REMARK   39  A    between atoms: _95  and  _96
REMARK   40  A    between atoms: _95  and  _98
REMARK   41  A    between atoms: _98  and  _99
REMARK   42  A    between atoms: _102  and  _104
REMARK   43  A    between atoms: _104  and  _105
REMARK   44  A    between atoms: _104  and  _107
REMARK   45  A    between atoms: _107  and  _108
REMARK   46  A    between atoms: _111  and  _113
REMARK   47  A    between atoms: _113  and  _114
REMARK   48  A    between atoms: _116  and  _118
REMARK   49  A    between atoms: _118  and  _119
REMARK   50  A    between atoms: _118  and  _121
REMARK   51  A    between atoms: _121  and  _122
REMARK   52  A    between atoms: _124  and  _126
REMARK   53  A    between atoms: _126  and  _127
REMARK   54  A    between atoms: _130  and  _132
REMARK   55  A    between atoms: _132  and  _133
REMARK   56  A    between atoms: _132  and  _135
REMARK   57  A    between atoms: _135  and  _136
REMARK   58  A    between atoms: _139  and  _141
REMARK   59  A    between atoms: _141  and  _142
REMARK   60  A    between atoms: _141  and  _144
REMARK   61  A    between atoms: _144  and  _145
REMARK   62  A    between atoms: _155  and  _157
REMARK   63  A    between atoms: _157  and  _158
REMARK   64  A    between atoms: _157  and  _160
REMARK   65  A    between atoms: _160  and  _161
REMARK   66  A    between atoms: _164  and  _166
REMARK   67  A    between atoms: _166  and  _167
REMARK   68  A    between atoms: _166  and  _169
REMARK   69  A    between atoms: _169  and  _170
REMARK   70  A    between atoms: _172  and  _174
REMARK   71  A    between atoms: _174  and  _175
REMARK   72  A    between atoms: _174  and  _177
REMARK   73  A    between atoms: _177  and  _178
REMARK   74  A    between atoms: _183  and  _184
REMARK   75  A    between atoms: _186  and  _188
REMARK   76  A    between atoms: _188  and  _189
REMARK   77  A    between atoms: _191  and  _193
REMARK   78  A    between atoms: _193  and  _194
REMARK   79  A    between atoms: _193  and  _196
REMARK   80  A    between atoms: _196  and  _197
REMARK   81  A    between atoms: _200  and  _202
REMARK   82  A    between atoms: _202  and  _203
REMARK   83  A    between atoms: _205  and  _207
REMARK   84  A    between atoms: _207  and  _208
REMARK   85  A    between atoms: _207  and  _210
REMARK   86  A    between atoms: _210  and  _211
REMARK   87  A    between atoms: _213  and  _215
REMARK   88  A    between atoms: _215  and  _216
REMARK   89  A    between atoms: _215  and  _218
REMARK   90  A    between atoms: _218  and  _219
REMARK   91  A    between atoms: _221  and  _223
REMARK   92  A    between atoms: _223  and  _224
REMARK   93  A    between atoms: _223  and  _226
REMARK   94  A    between atoms: _226  and  _227
REMARK   95  A    between atoms: _229  and  _231
REMARK   96  A    between atoms: _231  and  _232
REMARK   97  A    between atoms: _231  and  _234
REMARK   98  A    between atoms: _234  and  _235
REMARK   99  A    between atoms: _235  and  _236
REMARK  100  A    between atoms: _241  and  _243
REMARK  101  A    between atoms: _243  and  _244
REMARK  102  A    between atoms: _243  and  _246
REMARK  103  A    between atoms: _246  and  _247
REMARK  104  A    between atoms: _253  and  _255
REMARK  105  A    between atoms: _255  and  _256
REMARK  106  A    between atoms: _255  and  _258
REMARK  107  A    between atoms: _258  and  _259
REMARK  108  A    between atoms: _262  and  _264
REMARK  109  A    between atoms: _264  and  _265
REMARK  110  A    between atoms: _264  and  _267
REMARK  111  A    between atoms: _267  and  _268
REMARK  112  A    between atoms: _273  and  _275
REMARK  113  A    between atoms: _275  and  _276
REMARK  114  A    between atoms: _275  and  _278
REMARK  115  A    between atoms: _278  and  _279
REMARK  116  A    between atoms: _284  and  _286
REMARK  117  A    between atoms: _286  and  _287
REMARK  118  A    between atoms: _289  and  _291
REMARK  119  A    between atoms: _291  and  _292
REMARK  120  A    between atoms: _291  and  _294
REMARK  121  A    between atoms: _294  and  _295
REMARK  122  A    between atoms: _298  and  _300
REMARK  123  A    between atoms: _300  and  _301
REMARK  124  A    between atoms: _300  and  _303
REMARK  125  A    between atoms: _303  and  _304
REMARK  126  A    between atoms: _307  and  _309
REMARK  127  A    between atoms: _309  and  _310
REMARK  128  A    between atoms: _312  and  _314
REMARK  129  A    between atoms: _314  and  _315
REMARK  130  A    between atoms: _314  and  _317
REMARK  131  A    between atoms: _317  and  _318
REMARK  132  A    between atoms: _321  and  _323
REMARK  133  A    between atoms: _323  and  _324
REMARK  134  A    between atoms: _327  and  _329
REMARK  135  A    between atoms: _329  and  _330
REMARK  136  A    between atoms: _329  and  _332
REMARK  137  A    between atoms: _332  and  _333
REMARK  138  A    between atoms: _336  and  _338
REMARK  139  A    between atoms: _338  and  _339
REMARK  140  A    between atoms: _338  and  _341
REMARK  141  A    between atoms: _341  and  _342
REMARK  142  A    between atoms: _342  and  _343
REMARK  143  A    between atoms: _348  and  _350
REMARK  144  A    between atoms: _350  and  _351
REMARK  145  A    between atoms: _350  and  _353
REMARK  146  A    between atoms: _353  and  _354
REMARK  147  A    between atoms: _360  and  _362
REMARK  148  A    between atoms: _362  and  _363
REMARK  149  A    between atoms: _362  and  _365
REMARK  150  A    between atoms: _365  and  _366
REMARK  151  A    between atoms: _376  and  _378
REMARK  152  A    between atoms: _378  and  _379
REMARK  153  A    between atoms: _378  and  _381
REMARK  154  A    between atoms: _381  and  _382
REMARK  155  A    between atoms: _385  and  _387
REMARK  156  A    between atoms: _387  and  _388
REMARK  157  A    between atoms: _391  and  _393
REMARK  158  A    between atoms: _393  and  _394
REMARK  159  A    between atoms: _393  and  _396
REMARK  160  A    between atoms: _396  and  _397
REMARK  161  A    between atoms: _400  and  _402
REMARK  162  A    between atoms: _402  and  _403
REMARK  163  A    between atoms: _402  and  _405
REMARK  164  A    between atoms: _405  and  _406
REMARK  165  A    between atoms: _409  and  _411
REMARK  166  A    between atoms: _411  and  _412
REMARK  167  A    between atoms: _414  and  _416
REMARK  168  A    between atoms: _416  and  _417
REMARK  169  A    between atoms: _416  and  _419
REMARK  170  A    between atoms: _419  and  _420
REMARK  171  A    between atoms: _423  and  _425
REMARK  172  A    between atoms: _425  and  _426
REMARK  173  A    between atoms: _425  and  _428
REMARK  174  A    between atoms: _428  and  _429
REMARK  175  A    between atoms: _432  and  _434
REMARK  176  A    between atoms: _434  and  _435
REMARK  177  A    between atoms: _434  and  _437
REMARK  178  A    between atoms: _437  and  _438
REMARK  179  A    between atoms: _441  and  _443
REMARK  180  A    between atoms: _443  and  _444
REMARK  181  A    between atoms: _443  and  _446
REMARK  182  A    between atoms: _446  and  _447
REMARK  183  A    between atoms: _450  and  _452
REMARK  184  A    between atoms: _452  and  _453
REMARK  185  A    between atoms: _452  and  _455
REMARK  186  A    between atoms: _455  and  _456
REMARK  187  A    between atoms: _459  and  _461
REMARK  188  A    between atoms: _461  and  _462
REMARK  189  A    between atoms: _465  and  _467
REMARK  190  A    between atoms: _467  and  _468
REMARK  191  A    between atoms: _470  and  _472
REMARK  192  A    between atoms: _472  and  _473
REMARK  193  A    between atoms: _475  and  _477
REMARK  194  A    between atoms: _477  and  _478
REMARK  195  A    between atoms: _477  and  _480
REMARK  196  A    between atoms: _480  and  _481
REMARK  197  A    between atoms: _486  and  _487
REMARK  198  A    between atoms: _490  and  _491
REMARK  199  A    between atoms: _496  and  _498
REMARK  200  A    between atoms: _498  and  _499
REMARK  201  A    between atoms: _498  and  _501
REMARK  202  A    between atoms: _501  and  _502
REMARK  203  A    between atoms: _504  and  _506
REMARK  204  A    between atoms: _506  and  _507
REMARK  205  A    between atoms: _506  and  _509
REMARK  206  A    between atoms: _509  and  _510
REMARK  207  A    between atoms: _513  and  _515
REMARK  208  A    between atoms: _515  and  _516
REMARK  209  A    between atoms: _518  and  _520
REMARK  210  A    between atoms: _520  and  _521
REMARK  211  A    between atoms: _520  and  _523
REMARK  212  A    between atoms: _523  and  _524
REMARK  213  A    between atoms: _524  and  _525
REMARK  214  A    between atoms: _530  and  _532
REMARK  215  A    between atoms: _532  and  _533
REMARK  216  A    between atoms: _532  and  _535
REMARK  217  A    between atoms: _535  and  _536
REMARK  218  A    between atoms: _538  and  _540
REMARK  219  A    between atoms: _540  and  _541
REMARK  220  A    between atoms: _540  and  _543
REMARK  221  A    between atoms: _543  and  _544
REMARK  222  A    between atoms: _549  and  _551
REMARK  223  A    between atoms: _551  and  _552
REMARK  224  A    between atoms: _551  and  _554
REMARK  225  A    between atoms: _554  and  _555
REMARK  226  A    between atoms: _557  and  _559
REMARK  227  A    between atoms: _559  and  _560
REMARK  228  A    between atoms: _559  and  _562
REMARK  229  A    between atoms: _562  and  _563
REMARK  230  A    between atoms: _566  and  _568
REMARK  231  A    between atoms: _568  and  _569
REMARK  232  A    between atoms: _568  and  _571
REMARK  233  A    between atoms: _571  and  _572
REMARK  234  A    between atoms: _578  and  _580
REMARK  235  A    between atoms: _580  and  _581
REMARK  236  A    between atoms: _580  and  _583
REMARK  237  A    between atoms: _583  and  _584
REMARK  238  A    between atoms: _586  and  _588
REMARK  239  A    between atoms: _588  and  _589
REMARK  240  A    between atoms: _588  and  _591
REMARK  241  A    between atoms: _591  and  _592
REMARK  242  A    between atoms: _595  and  _597
REMARK  243  A    between atoms: _597  and  _598
REMARK  244  A    between atoms: _597  and  _600
REMARK  245  A    between atoms: _600  and  _601
REMARK  246  A    between atoms: _607  and  _609
REMARK  247  A    between atoms: _609  and  _610
REMARK  248  A    between atoms: _612  and  _614
REMARK  249  A    between atoms: _614  and  _615
REMARK  250  A    between atoms: _614  and  _617
REMARK  251  A    between atoms: _617  and  _618
REMARK                            x       y       z     vdW  Elec       q    Type
REMARK                         _______ _______ _______ _____ _____    ______ ____
ROOT
ATOM      1  O   HOH     1      17.618   1.764  10.448  0.00  0.00    +0.000 OA
ENDROOT
TORSDOF 0
REMARK  Name = ../refined-set-2016/1bxq/1bxq_pocket.pdb
REMARK  251 active torsions:
REMARK  status: ('A' for Active; 'I' for Inactive)
REMARK    1  A    between atoms: _1  and  _3
REMARK    2  A    between atoms: _3  and  _4
REMARK    3  A    between atoms: _3  and  _6
REMARK    4  A    between atoms: _6  and  _7
REMARK    5  A    between atoms: _10  and  _12
REMARK    6  A    between atoms: _12  and  _13
REMARK    7  A    between atoms: _16  and  _18
REMARK    8  A    between atoms: _18  and  _19
REMARK    9  A    between atoms: _18  and  _21
REMARK   10  A    between atoms: _21  and  _22
REMARK   11  A    between atoms: _27  and  _29
REMARK   12  A    between atoms: _29  and  _30
REMARK   13  A    between atoms: _29  and  _32
REMARK   14  A    between atoms: _32  and  _33
REMARK   15  A    between atoms: _36  and  _38
REMARK   16  A    between atoms: _38  and  _39
REMARK   17  A    between atoms: _38  and  _41
REMARK   18  A    between atoms: _41  and  _42
REMARK   19  A    between atoms: _42  and  _43
REMARK   20  A    between atoms: _46  and  _48
REMARK   21  A    between atoms: _48  and  _49
REMARK   22  A    between atoms: _48  and  _51
REMARK   23  A    between atoms: _51  and  _52
REMARK   24  A    between atoms: _52  and  _53
REMARK   25  A    between atoms: _56  and  _58
REMARK   26  A    between atoms: _58  and  _59
REMARK   27  A    between atoms: _58  and  _61
REMARK   28  A    between atoms: _61  and  _62
REMARK   29  A    between atoms: _67  and  _68
REMARK   30  A    between atoms: _70  and  _72
REMARK   31  A    between atoms: _72  and  _73
REMARK   32  A    between atoms: _72  and  _75
REMARK   33  A    between atoms: _75  and  _76
REMARK   34  A    between atoms: _81  and  _83
REMARK   35  A    between atoms: _83  and  _84
REMARK   36  A    between atoms: _83  and  _86
REMARK   37  A    between atoms: _86  and  _87
REMARK   38  A    between atoms: _93  and  _95
REMARK   39  A    between atoms: _95  and  _96
REMARK   40  A    between atoms: _95  and  _98
REMARK   41  A    between atoms: _98  and  _99
REMARK   42  A    between atoms: _102  and  _104
REMARK   43  A    between atoms: _104  and  _105
REMARK   44  A    between atoms: _104  and  _107
REMARK   45  A    between atoms: _107  and  _108
REMARK   46  A    between atoms: _111  and  _113
REMARK   47  A    between atoms: _113  and  _114
REMARK   48  A    between atoms: _116  and  _118
REMARK   49  A    between atoms: _118  and  _119
REMARK   50  A    between atoms: _118  and  _121
REMARK   51  A    between atoms: _121  and  _122
REMARK   52  A    between atoms: _124  and  _126
REMARK   53  A    between atoms: _126  and  _127
REMARK   54  A    between atoms: _130  and  _132
REMARK   55  A    between atoms: _132  and  _133
REMARK   56  A    between atoms: _132  and  _135
REMARK   57  A    between atoms: _135  and  _136
REMARK   58  A    between atoms: _139  and  _141
REMARK   59  A    between atoms: _141  and  _142
REMARK   60  A    between atoms: _141  and  _144
REMARK   61  A    between atoms: _144  and  _145
REMARK   62  A    between atoms: _155  and  _157
REMARK   63  A    between atoms: _157  and  _158
REMARK   64  A    between atoms: _157  and  _160
REMARK   65  A    between atoms: _160  and  _161
REMARK   66  A    between atoms: _164  and  _166
REMARK   67  A    between atoms: _166  and  _167
REMARK   68  A    between atoms: _166  and  _169
REMARK   69  A    between atoms: _169  and  _170
REMARK   70  A    between atoms: _172  and  _174
REMARK   71  A    between atoms: _174  and  _175
REMARK   72  A    between atoms: _174  and  _177
REMARK   73  A    between atoms: _177  and  _178
REMARK   74  A    between atoms: _183  and  _184
REMARK   75  A    between atoms: _186  and  _188
REMARK   76  A    between atoms: _188  and  _189
REMARK   77  A    between atoms: _191  and  _193
REMARK   78  A    between atoms: _193  and  _194
REMARK   79  A    between atoms: _193  and  _196
REMARK   80  A    between atoms: _196  and  _197
REMARK   81  A    between atoms: _200  and  _202
REMARK   82  A    between atoms: _202  and  _203
REMARK   83  A    between atoms: _205  and  _207
REMARK   84  A    between atoms: _207  and  _208
REMARK   85  A    between atoms: _207  and  _210
REMARK   86  A    between atoms: _210  and  _211
REMARK   87  A    between atoms: _213  and  _215
REMARK   88  A    between atoms: _215  and  _216
REMARK   89  A    between atoms: _215  and  _218
REMARK   90  A    between atoms: _218  and  _219
REMARK   91  A    between atoms: _221  and  _223
REMARK   92  A    between atoms: _223  and  _224
REMARK   93  A    between atoms: _223  and  _226
REMARK   94  A    between atoms: _226  and  _227
REMARK   95  A    between atoms: _229  and  _231
REMARK   96  A    between atoms: _231  and  _232
REMARK   97  A    between atoms: _231  and  _234
REMARK   98  A    between atoms: _234  and  _235
REMARK   99  A    between atoms: _235  and  _236
REMARK  100  A    between atoms: _241  and  _243
REMARK  101  A    between atoms: _243  and  _244
REMARK  102  A    between atoms: _243  and  _246
REMARK  103  A    between atoms: _246  and  _247
REMARK  104  A    between atoms: _253  and  _255
REMARK  105  A    between atoms: _255  and  _256
REMARK  106  A    between atoms: _255  and  _258
REMARK  107  A    between atoms: _258  and  _259
REMARK  108  A    between atoms: _262  and  _264
REMARK  109  A    between atoms: _264  and  _265
REMARK  110  A    between atoms: _264  and  _267
REMARK  111  A    between atoms: _267  and  _268
REMARK  112  A    between atoms: _273  and  _275
REMARK  113  A    between atoms: _275  and  _276
REMARK  114  A    between atoms: _275  and  _278
REMARK  115  A    between atoms: _278  and  _279
REMARK  116  A    between atoms: _284  and  _286
REMARK  117  A    between atoms: _286  and  _287
REMARK  118  A    between atoms: _289  and  _291
REMARK  119  A    between atoms: _291  and  _292
REMARK  120  A    between atoms: _291  and  _294
REMARK  121  A    between atoms: _294  and  _295
REMARK  122  A    between atoms: _298  and  _300
REMARK  123  A    between atoms: _300  and  _301
REMARK  124  A    between atoms: _300  and  _303
REMARK  125  A    between atoms: _303  and  _304
REMARK  126  A    between atoms: _307  and  _309
REMARK  127  A    between atoms: _309  and  _310
REMARK  128  A    between atoms: _312  and  _314
REMARK  129  A    between atoms: _314  and  _315
REMARK  130  A    between atoms: _314  and  _317
REMARK  131  A    between atoms: _317  and  _318
REMARK  132  A    between atoms: _321  and  _323
REMARK  133  A    between atoms: _323  and  _324
REMARK  134  A    between atoms: _327  and  _329
REMARK  135  A    between atoms: _329  and  _330
REMARK  136  A    between atoms: _329  and  _332
REMARK  137  A    between atoms: _332  and  _333
REMARK  138  A    between atoms: _336  and  _338
REMARK  139  A    between atoms: _338  and  _339
REMARK  140  A    between atoms: _338  and  _341
REMARK  141  A    between atoms: _341  and  _342
REMARK  142  A    between atoms: _342  and  _343
REMARK  143  A    between atoms: _348  and  _350
REMARK  144  A    between atoms: _350  and  _351
REMARK  145  A    between atoms: _350  and  _353
REMARK  146  A    between atoms: _353  and  _354
REMARK  147  A    between atoms: _360  and  _362
REMARK  148  A    between atoms: _362  and  _363
REMARK  149  A    between atoms: _362  and  _365
REMARK  150  A    between atoms: _365  and  _366
REMARK  151  A    between atoms: _376  and  _378
REMARK  152  A    between atoms: _378  and  _379
REMARK  153  A    between atoms: _378  and  _381
REMARK  154  A    between atoms: _381  and  _382
REMARK  155  A    between atoms: _385  and  _387
REMARK  156  A    between atoms: _387  and  _388
REMARK  157  A    between atoms: _391  and  _393
REMARK  158  A    between atoms: _393  and  _394
REMARK  159  A    between atoms: _393  and  _396
REMARK  160  A    between atoms: _396  and  _397
REMARK  161  A    between atoms: _400  and  _402
REMARK  162  A    between atoms: _402  and  _403
REMARK  163  A    between atoms: _402  and  _405
REMARK  164  A    between atoms: _405  and  _406
REMARK  165  A    between atoms: _409  and  _411
REMARK  166  A    between atoms: _411  and  _412
REMARK  167  A    between atoms: _414  and  _416
REMARK  168  A    between atoms: _416  and  _417
REMARK  169  A    between atoms: _416  and  _419
REMARK  170  A    between atoms: _419  and  _420
REMARK  171  A    between atoms: _423  and  _425
REMARK  172  A    between atoms: _425  and  _426
REMARK  173  A    between atoms: _425  and  _428
REMARK  174  A    between atoms: _428  and  _429
REMARK  175  A    between atoms: _432  and  _434
REMARK  176  A    between atoms: _434  and  _435
REMARK  177  A    between atoms: _434  and  _437
REMARK  178  A    between atoms: _437  and  _438
REMARK  179  A    between atoms: _441  and  _443
REMARK  180  A    between atoms: _443  and  _444
REMARK  181  A    between atoms: _443  and  _446
REMARK  182  A    between atoms: _446  and  _447
REMARK  183  A    between atoms: _450  and  _452
REMARK  184  A    between atoms: _452  and  _453
REMARK  185  A    between atoms: _452  and  _455
REMARK  186  A    between atoms: _455  and  _456
REMARK  187  A    between atoms: _459  and  _461
REMARK  188  A    between atoms: _461  and  _462
REMARK  189  A    between atoms: _465  and  _467
REMARK  190  A    between atoms: _467  and  _468
REMARK  191  A    between atoms: _470  and  _472
REMARK  192  A    between atoms: _472  and  _473
REMARK  193  A    between atoms: _475  and  _477
REMARK  194  A    between atoms: _477  and  _478
REMARK  195  A    between atoms: _477  and  _480
REMARK  196  A    between atoms: _480  and  _481
REMARK  197  A    between atoms: _486  and  _487
REMARK  198  A    between atoms: _490  and  _491
REMARK  199  A    between atoms: _496  and  _498
REMARK  200  A    between atoms: _498  and  _499
REMARK  201  A    between atoms: _498  and  _501
REMARK  202  A    between atoms: _501  and  _502
REMARK  203  A    between atoms: _504  and  _506
REMARK  204  A    between atoms: _506  and  _507
REMARK  205  A    between atoms: _506  and  _509
REMARK  206  A    between atoms: _509  and  _510
REMARK  207  A    between atoms: _513  and  _515
REMARK  208  A    between atoms: _515  and  _516
REMARK  209  A    between atoms: _518  and  _520
REMARK  210  A    between atoms: _520  and  _521
REMARK  211  A    between atoms: _520  and  _523
REMARK  212  A    between atoms: _523  and  _524
REMARK  213  A    between atoms: _524  and  _525
REMARK  214  A    between atoms: _530  and  _532
REMARK  215  A    between atoms: _532  and  _533
REMARK  216  A    between atoms: _532  and  _535
REMARK  217  A    between atoms: _535  and  _536
REMARK  218  A    between atoms: _538  and  _540
REMARK  219  A    between atoms: _540  and  _541
REMARK  220  A    between atoms: _540  and  _543
REMARK  221  A    between atoms: _543  and  _544
REMARK  222  A    between atoms: _549  and  _551
REMARK  223  A    between atoms: _551  and  _552
REMARK  224  A    between atoms: _551  and  _554
REMARK  225  A    between atoms: _554  and  _555
REMARK  226  A    between atoms: _557  and  _559
REMARK  227  A    between atoms: _559  and  _560
REMARK  228  A    between atoms: _559  and  _562
REMARK  229  A    between atoms: _562  and  _563
REMARK  230  A    between atoms: _566  and  _568
REMARK  231  A    between atoms: _568  and  _569
REMARK  232  A    between atoms: _568  and  _571
REMARK  233  A    between atoms: _571  and  _572
REMARK  234  A    between atoms: _578  and  _580
REMARK  235  A    between atoms: _580  and  _581
REMARK  236  A    between atoms: _580  and  _583
REMARK  237  A    between atoms: _583  and  _584
REMARK  238  A    between atoms: _586  and  _588
REMARK  239  A    between atoms: _588  and  _589
REMARK  240  A    between atoms: _588  and  _591
REMARK  241  A    between atoms: _591  and  _592
REMARK  242  A    between atoms: _595  and  _597
REMARK  243  A    between atoms: _597  and  _598
REMARK  244  A    between atoms: _597  and  _600
REMARK  245  A    between atoms: _600  and  _601
REMARK  246  A    between atoms: _607  and  _609
REMARK  247  A    between atoms: _609  and  _610
REMARK  248  A    between atoms: _612  and  _614
REMARK  249  A    between atoms: _614  and  _615
REMARK  250  A    between atoms: _614  and  _617
REMARK  251  A    between atoms: _617  and  _618
REMARK                            x       y       z     vdW  Elec       q    Type
REMARK                         _______ _______ _______ _____ _____    ______ ____
ROOT
ATOM      1  O   HOH     1      15.441   8.316  19.917  0.00  0.00    +0.000 OA
ENDROOT
TORSDOF 0
REMARK  Name = ../refined-set-2016/1bxq/1bxq_pocket.pdb
REMARK  251 active torsions:
REMARK  status: ('A' for Active; 'I' for Inactive)
REMARK    1  A    between atoms: _1  and  _3
REMARK    2  A    between atoms: _3  and  _4
REMARK    3  A    between atoms: _3  and  _6
REMARK    4  A    between atoms: _6  and  _7
REMARK    5  A    between atoms: _10  and  _12
REMARK    6  A    between atoms: _12  and  _13
REMARK    7  A    between atoms: _16  and  _18
REMARK    8  A    between atoms: _18  and  _19
REMARK    9  A    between atoms: _18  and  _21
REMARK   10  A    between atoms: _21  and  _22
REMARK   11  A    between atoms: _27  and  _29
REMARK   12  A    between atoms: _29  and  _30
REMARK   13  A    between atoms: _29  and  _32
REMARK   14  A    between atoms: _32  and  _33
REMARK   15  A    between atoms: _36  and  _38
REMARK   16  A    between atoms: _38  and  _39
REMARK   17  A    between atoms: _38  and  _41
REMARK   18  A    between atoms: _41  and  _42
REMARK   19  A    between atoms: _42  and  _43
REMARK   20  A    between atoms: _46  and  _48
REMARK   21  A    between atoms: _48  and  _49
REMARK   22  A    between atoms: _48  and  _51
REMARK   23  A    between atoms: _51  and  _52
REMARK   24  A    between atoms: _52  and  _53
REMARK   25  A    between atoms: _56  and  _58
REMARK   26  A    between atoms: _58  and  _59
REMARK   27  A    between atoms: _58  and  _61
REMARK   28  A    between atoms: _61  and  _62
REMARK   29  A    between atoms: _67  and  _68
REMARK   30  A    between atoms: _70  and  _72
REMARK   31  A    between atoms: _72  and  _73
REMARK   32  A    between atoms: _72  and  _75
REMARK   33  A    between atoms: _75  and  _76
REMARK   34  A    between atoms: _81  and  _83
REMARK   35  A    between atoms: _83  and  _84
REMARK   36  A    between atoms: _83  and  _86
REMARK   37  A    between atoms: _86  and  _87
REMARK   38  A    between atoms: _93  and  _95
REMARK   39  A    between atoms: _95  and  _96
REMARK   40  A    between atoms: _95  and  _98
REMARK   41  A    between atoms: _98  and  _99
REMARK   42  A    between atoms: _102  and  _104
REMARK   43  A    between atoms: _104  and  _105
REMARK   44  A    between atoms: _104  and  _107
REMARK   45  A    between atoms: _107  and  _108
REMARK   46  A    between atoms: _111  and  _113
REMARK   47  A    between atoms: _113  and  _114
REMARK   48  A    between atoms: _116  and  _118
REMARK   49  A    between atoms: _118  and  _119
REMARK   50  A    between atoms: _118  and  _121
REMARK   51  A    between atoms: _121  and  _122
REMARK   52  A    between atoms: _124  and  _126
REMARK   53  A    between atoms: _126  and  _127
REMARK   54  A    between atoms: _130  and  _132
REMARK   55  A    between atoms: _132  and  _133
REMARK   56  A    between atoms: _132  and  _135
REMARK   57  A    between atoms: _135  and  _136
REMARK   58  A    between atoms: _139  and  _141
REMARK   59  A    between atoms: _141  and  _142
REMARK   60  A    between atoms: _141  and  _144
REMARK   61  A    between atoms: _144  and  _145
REMARK   62  A    between atoms: _155  and  _157
REMARK   63  A    between atoms: _157  and  _158
REMARK   64  A    between atoms: _157  and  _160
REMARK   65  A    between atoms: _160  and  _161
REMARK   66  A    between atoms: _164  and  _166
REMARK   67  A    between atoms: _166  and  _167
REMARK   68  A    between atoms: _166  and  _169
REMARK   69  A    between atoms: _169  and  _170
REMARK   70  A    between atoms: _172  and  _174
REMARK   71  A    between atoms: _174  and  _175
REMARK   72  A    between atoms: _174  and  _177
REMARK   73  A    between atoms: _177  and  _178
REMARK   74  A    between atoms: _183  and  _184
REMARK   75  A    between atoms: _186  and  _188
REMARK   76  A    between atoms: _188  and  _189
REMARK   77  A    between atoms: _191  and  _193
REMARK   78  A    between atoms: _193  and  _194
REMARK   79  A    between atoms: _193  and  _196
REMARK   80  A    between atoms: _196  and  _197
REMARK   81  A    between atoms: _200  and  _202
REMARK   82  A    between atoms: _202  and  _203
REMARK   83  A    between atoms: _205  and  _207
REMARK   84  A    between atoms: _207  and  _208
REMARK   85  A    between atoms: _207  and  _210
REMARK   86  A    between atoms: _210  and  _211
REMARK   87  A    between atoms: _213  and  _215
REMARK   88  A    between atoms: _215  and  _216
REMARK   89  A    between atoms: _215  and  _218
REMARK   90  A    between atoms: _218  and  _219
REMARK   91  A    between atoms: _221  and  _223
REMARK   92  A    between atoms: _223  and  _224
REMARK   93  A    between atoms: _223  and  _226
REMARK   94  A    between atoms: _226  and  _227
REMARK   95  A    between atoms: _229  and  _231
REMARK   96  A    between atoms: _231  and  _232
REMARK   97  A    between atoms: _231  and  _234
REMARK   98  A    between atoms: _234  and  _235
REMARK   99  A    between atoms: _235  and  _236
REMARK  100  A    between atoms: _241  and  _243
REMARK  101  A    between atoms: _243  and  _244
REMARK  102  A    between atoms: _243  and  _246
REMARK  103  A    between atoms: _246  and  _247
REMARK  104  A    between atoms: _253  and  _255
REMARK  105  A    between atoms: _255  and  _256
REMARK  106  A    between atoms: _255  and  _258
REMARK  107  A    between atoms: _258  and  _259
REMARK  108  A    between atoms: _262  and  _264
REMARK  109  A    between atoms: _264  and  _265
REMARK  110  A    between atoms: _264  and  _267
REMARK  111  A    between atoms: _267  and  _268
REMARK  112  A    between atoms: _273  and  _275
REMARK  113  A    between atoms: _275  and  _276
REMARK  114  A    between atoms: _275  and  _278
REMARK  115  A    between atoms: _278  and  _279
REMARK  116  A    between atoms: _284  and  _286
REMARK  117  A    between atoms: _286  and  _287
REMARK  118  A    between atoms: _289  and  _291
REMARK  119  A    between atoms: _291  and  _292
REMARK  120  A    between atoms: _291  and  _294
REMARK  121  A    between atoms: _294  and  _295
REMARK  122  A    between atoms: _298  and  _300
REMARK  123  A    between atoms: _300  and  _301
REMARK  124  A    between atoms: _300  and  _303
REMARK  125  A    between atoms: _303  and  _304
REMARK  126  A    between atoms: _307  and  _309
REMARK  127  A    between atoms: _309  and  _310
REMARK  128  A    between atoms: _312  and  _314
REMARK  129  A    between atoms: _314  and  _315
REMARK  130  A    between atoms: _314  and  _317
REMARK  131  A    between atoms: _317  and  _318
REMARK  132  A    between atoms: _321  and  _323
REMARK  133  A    between atoms: _323  and  _324
REMARK  134  A    between atoms: _327  and  _329
REMARK  135  A    between atoms: _329  and  _330
REMARK  136  A    between atoms: _329  and  _332
REMARK  137  A    between atoms: _332  and  _333
REMARK  138  A    between atoms: _336  and  _338
REMARK  139  A    between atoms: _338  and  _339
REMARK  140  A    between atoms: _338  and  _341
REMARK  141  A    between atoms: _341  and  _342
REMARK  142  A    between atoms: _342  and  _343
REMARK  143  A    between atoms: _348  and  _350
REMARK  144  A    between atoms: _350  and  _351
REMARK  145  A    between atoms: _350  and  _353
REMARK  146  A    between atoms: _353  and  _354
REMARK  147  A    between atoms: _360  and  _362
REMARK  148  A    between atoms: _362  and  _363
REMARK  149  A    between atoms: _362  and  _365
REMARK  150  A    between atoms: _365  and  _366
REMARK  151  A    between atoms: _376  and  _378
REMARK  152  A    between atoms: _378  and  _379
REMARK  153  A    between atoms: _378  and  _381
REMARK  154  A    between atoms: _381  and  _382
REMARK  155  A    between atoms: _385  and  _387
REMARK  156  A    between atoms: _387  and  _388
REMARK  157  A    between atoms: _391  and  _393
REMARK  158  A    between atoms: _393  and  _394
REMARK  159  A    between atoms: _393  and  _396
REMARK  160  A    between atoms: _396  and  _397
REMARK  161  A    between atoms: _400  and  _402
REMARK  162  A    between atoms: _402  and  _403
REMARK  163  A    between atoms: _402  and  _405
REMARK  164  A    between atoms: _405  and  _406
REMARK  165  A    between atoms: _409  and  _411
REMARK  166  A    between atoms: _411  and  _412
REMARK  167  A    between atoms: _414  and  _416
REMARK  168  A    between atoms: _416  and  _417
REMARK  169  A    between atoms: _416  and  _419
REMARK  170  A    between atoms: _419  and  _420
REMARK  171  A    between atoms: _423  and  _425
REMARK  172  A    between atoms: _425  and  _426
REMARK  173  A    between atoms: _425  and  _428
REMARK  174  A    between atoms: _428  and  _429
REMARK  175  A    between atoms: _432  and  _434
REMARK  176  A    between atoms: _434  and  _435
REMARK  177  A    between atoms: _434  and  _437
REMARK  178  A    between atoms: _437  and  _438
REMARK  179  A    between atoms: _441  and  _443
REMARK  180  A    between atoms: _443  and  _444
REMARK  181  A    between atoms: _443  and  _446
REMARK  182  A    between atoms: _446  and  _447
REMARK  183  A    between atoms: _450  and  _452
REMARK  184  A    between atoms: _452  and  _453
REMARK  185  A    between atoms: _452  and  _455
REMARK  186  A    between atoms: _455  and  _456
REMARK  187  A    between atoms: _459  and  _461
REMARK  188  A    between atoms: _461  and  _462
REMARK  189  A    between atoms: _465  and  _467
REMARK  190  A    between atoms: _467  and  _468
REMARK  191  A    between atoms: _470  and  _472
REMARK  192  A    between atoms: _472  and  _473
REMARK  193  A    between atoms: _475  and  _477
REMARK  194  A    between atoms: _477  and  _478
REMARK  195  A    between atoms: _477  and  _480
REMARK  196  A    between atoms: _480  and  _481
REMARK  197  A    between atoms: _486  and  _487
REMARK  198  A    between atoms: _490  and  _491
REMARK  199  A    between atoms: _496  and  _498
REMARK  200  A    between atoms: _498  and  _499
REMARK  201  A    between atoms: _498  and  _501
REMARK  202  A    between atoms: _501  and  _502
REMARK  203  A    between atoms: _504  and  _506
REMARK  204  A    between atoms: _506  and  _507
REMARK  205  A    between atoms: _506  and  _509
REMARK  206  A    between atoms: _509  and  _510
REMARK  207  A    between atoms: _513  and  _515
REMARK  208  A    between atoms: _515  and  _516
REMARK  209  A    between atoms: _518  and  _520
REMARK  210  A    between atoms: _520  and  _521
REMARK  211  A    between atoms: _520  and  _523
REMARK  212  A    between atoms: _523  and  _524
REMARK  213  A    between atoms: _524  and  _525
REMARK  214  A    between atoms: _530  and  _532
REMARK  215  A    between atoms: _532  and  _533
REMARK  216  A    between atoms: _532  and  _535
REMARK  217  A    between atoms: _535  and  _536
REMARK  218  A    between atoms: _538  and  _540
REMARK  219  A    between atoms: _540  and  _541
REMARK  220  A    between atoms: _540  and  _543
REMARK  221  A    between atoms: _543  and  _544
REMARK  222  A    between atoms: _549  and  _551
REMARK  223  A    between atoms: _551  and  _552
REMARK  224  A    between atoms: _551  and  _554
REMARK  225  A    between atoms: _554  and  _555
REMARK  226  A    between atoms: _557  and  _559
REMARK  227  A    between atoms: _559  and  _560
REMARK  228  A    between atoms: _559  and  _562
REMARK  229  A    between atoms: _562  and  _563
REMARK  230  A    between atoms: _566  and  _568
REMARK  231  A    between atoms: _568  and  _569
REMARK  232  A    between atoms: _568  and  _571
REMARK  233  A    between atoms: _571  and  _572
REMARK  234  A    between atoms: _578  and  _580
REMARK  235  A    between atoms: _580  and  _581
REMARK  236  A    between atoms: _580  and  _583
REMARK  237  A    between atoms: _583  and  _584
REMARK  238  A    between atoms: _586  and  _588
REMARK  239  A    between atoms: _588  and  _589
REMARK  240  A    between atoms: _588  and  _591
REMARK  241  A    between atoms: _591  and  _592
REMARK  242  A    between atoms: _595  and  _597
REMARK  243  A    between atoms: _597  and  _598
REMARK  244  A    between atoms: _597  and  _600
REMARK  245  A    between atoms: _600  and  _601
REMARK  246  A    between atoms: _607  and  _609
REMARK  247  A    between atoms: _609  and  _610
REMARK  248  A    between atoms: _612  and  _614
REMARK  249  A    between atoms: _614  and  _615
REMARK  250  A    between atoms: _614  and  _617
REMARK  251  A    between atoms: _617  and  _618
REMARK                            x       y       z     vdW  Elec       q    Type
REMARK                         _______ _______ _______ _____ _____    ______ ____
ROOT
ATOM      1  O   HOH     1      19.389   9.344  14.837  0.00  0.00    +0.000 OA
ENDROOT
TORSDOF 0
REMARK  Name = ../refined-set-2016/1bxq/1bxq_pocket.pdb
REMARK  251 active torsions:
REMARK  status: ('A' for Active; 'I' for Inactive)
REMARK    1  A    between atoms: _1  and  _3
REMARK    2  A    between atoms: _3  and  _4
REMARK    3  A    between atoms: _3  and  _6
REMARK    4  A    between atoms: _6  and  _7
REMARK    5  A    between atoms: _10  and  _12
REMARK    6  A    between atoms: _12  and  _13
REMARK    7  A    between atoms: _16  and  _18
REMARK    8  A    between atoms: _18  and  _19
REMARK    9  A    between atoms: _18  and  _21
REMARK   10  A    between atoms: _21  and  _22
REMARK   11  A    between atoms: _27  and  _29
REMARK   12  A    between atoms: _29  and  _30
REMARK   13  A    between atoms: _29  and  _32
REMARK   14  A    between atoms: _32  and  _33
REMARK   15  A    between atoms: _36  and  _38
REMARK   16  A    between atoms: _38  and  _39
REMARK   17  A    between atoms: _38  and  _41
REMARK   18  A    between atoms: _41  and  _42
REMARK   19  A    between atoms: _42  and  _43
REMARK   20  A    between atoms: _46  and  _48
REMARK   21  A    between atoms: _48  and  _49
REMARK   22  A    between atoms: _48  and  _51
REMARK   23  A    between atoms: _51  and  _52
REMARK   24  A    between atoms: _52  and  _53
REMARK   25  A    between atoms: _56  and  _58
REMARK   26  A    between atoms: _58  and  _59
REMARK   27  A    between atoms: _58  and  _61
REMARK   28  A    between atoms: _61  and  _62
REMARK   29  A    between atoms: _67  and  _68
REMARK   30  A    between atoms: _70  and  _72
REMARK   31  A    between atoms: _72  and  _73
REMARK   32  A    between atoms: _72  and  _75
REMARK   33  A    between atoms: _75  and  _76
REMARK   34  A    between atoms: _81  and  _83
REMARK   35  A    between atoms: _83  and  _84
REMARK   36  A    between atoms: _83  and  _86
REMARK   37  A    between atoms: _86  and  _87
REMARK   38  A    between atoms: _93  and  _95
REMARK   39  A    between atoms: _95  and  _96
REMARK   40  A    between atoms: _95  and  _98
REMARK   41  A    between atoms: _98  and  _99
REMARK   42  A    between atoms: _102  and  _104
REMARK   43  A    between atoms: _104  and  _105
REMARK   44  A    between atoms: _104  and  _107
REMARK   45  A    between atoms: _107  and  _108
REMARK   46  A    between atoms: _111  and  _113
REMARK   47  A    between atoms: _113  and  _114
REMARK   48  A    between atoms: _116  and  _118
REMARK   49  A    between atoms: _118  and  _119
REMARK   50  A    between atoms: _118  and  _121
REMARK   51  A    between atoms: _121  and  _122
REMARK   52  A    between atoms: _124  and  _126
REMARK   53  A    between atoms: _126  and  _127
REMARK   54  A    between atoms: _130  and  _132
REMARK   55  A    between atoms: _132  and  _133
REMARK   56  A    between atoms: _132  and  _135
REMARK   57  A    between atoms: _135  and  _136
REMARK   58  A    between atoms: _139  and  _141
REMARK   59  A    between atoms: _141  and  _142
REMARK   60  A    between atoms: _141  and  _144
REMARK   61  A    between atoms: _144  and  _145
REMARK   62  A    between atoms: _155  and  _157
REMARK   63  A    between atoms: _157  and  _158
REMARK   64  A    between atoms: _157  and  _160
REMARK   65  A    between atoms: _160  and  _161
REMARK   66  A    between atoms: _164  and  _166
REMARK   67  A    between atoms: _166  and  _167
REMARK   68  A    between atoms: _166  and  _169
REMARK   69  A    between atoms: _169  and  _170
REMARK   70  A    between atoms: _172  and  _174
REMARK   71  A    between atoms: _174  and  _175
REMARK   72  A    between atoms: _174  and  _177
REMARK   73  A    between atoms: _177  and  _178
REMARK   74  A    between atoms: _183  and  _184
REMARK   75  A    between atoms: _186  and  _188
REMARK   76  A    between atoms: _188  and  _189
REMARK   77  A    between atoms: _191  and  _193
REMARK   78  A    between atoms: _193  and  _194
REMARK   79  A    between atoms: _193  and  _196
REMARK   80  A    between atoms: _196  and  _197
REMARK   81  A    between atoms: _200  and  _202
REMARK   82  A    between atoms: _202  and  _203
REMARK   83  A    between atoms: _205  and  _207
REMARK   84  A    between atoms: _207  and  _208
REMARK   85  A    between atoms: _207  and  _210
REMARK   86  A    between atoms: _210  and  _211
REMARK   87  A    between atoms: _213  and  _215
REMARK   88  A    between atoms: _215  and  _216
REMARK   89  A    between atoms: _215  and  _218
REMARK   90  A    between atoms: _218  and  _219
REMARK   91  A    between atoms: _221  and  _223
REMARK   92  A    between atoms: _223  and  _224
REMARK   93  A    between atoms: _223  and  _226
REMARK   94  A    between atoms: _226  and  _227
REMARK   95  A    between atoms: _229  and  _231
REMARK   96  A    between atoms: _231  and  _232
REMARK   97  A    between atoms: _231  and  _234
REMARK   98  A    between atoms: _234  and  _235
REMARK   99  A    between atoms: _235  and  _236
REMARK  100  A    between atoms: _241  and  _243
REMARK  101  A    between atoms: _243  and  _244
REMARK  102  A    between atoms: _243  and  _246
REMARK  103  A    between atoms: _246  and  _247
REMARK  104  A    between atoms: _253  and  _255
REMARK  105  A    between atoms: _255  and  _256
REMARK  106  A    between atoms: _255  and  _258
REMARK  107  A    between atoms: _258  and  _259
REMARK  108  A    between atoms: _262  and  _264
REMARK  109  A    between atoms: _264  and  _265
REMARK  110  A    between atoms: _264  and  _267
REMARK  111  A    between atoms: _267  and  _268
REMARK  112  A    between atoms: _273  and  _275
REMARK  113  A    between atoms: _275  and  _276
REMARK  114  A    between atoms: _275  and  _278
REMARK  115  A    between atoms: _278  and  _279
REMARK  116  A    between atoms: _284  and  _286
REMARK  117  A    between atoms: _286  and  _287
REMARK  118  A    between atoms: _289  and  _291
REMARK  119  A    between atoms: _291  and  _292
REMARK  120  A    between atoms: _291  and  _294
REMARK  121  A    between atoms: _294  and  _295
REMARK  122  A    between atoms: _298  and  _300
REMARK  123  A    between atoms: _300  and  _301
REMARK  124  A    between atoms: _300  and  _303
REMARK  125  A    between atoms: _303  and  _304
REMARK  126  A    between atoms: _307  and  _309
REMARK  127  A    between atoms: _309  and  _310
REMARK  128  A    between atoms: _312  and  _314
REMARK  129  A    between atoms: _314  and  _315
REMARK  130  A    between atoms: _314  and  _317
REMARK  131  A    between atoms: _317  and  _318
REMARK  132  A    between atoms: _321  and  _323
REMARK  133  A    between atoms: _323  and  _324
REMARK  134  A    between atoms: _327  and  _329
REMARK  135  A    between atoms: _329  and  _330
REMARK  136  A    between atoms: _329  and  _332
REMARK  137  A    between atoms: _332  and  _333
REMARK  138  A    between atoms: _336  and  _338
REMARK  139  A    between atoms: _338  and  _339
REMARK  140  A    between atoms: _338  and  _341
REMARK  141  A    between atoms: _341  and  _342
REMARK  142  A    between atoms: _342  and  _343
REMARK  143  A    between atoms: _348  and  _350
REMARK  144  A    between atoms: _350  and  _351
REMARK  145  A    between atoms: _350  and  _353
REMARK  146  A    between atoms: _353  and  _354
REMARK  147  A    between atoms: _360  and  _362
REMARK  148  A    between atoms: _362  and  _363
REMARK  149  A    between atoms: _362  and  _365
REMARK  150  A    between atoms: _365  and  _366
REMARK  151  A    between atoms: _376  and  _378
REMARK  152  A    between atoms: _378  and  _379
REMARK  153  A    between atoms: _378  and  _381
REMARK  154  A    between atoms: _381  and  _382
REMARK  155  A    between atoms: _385  and  _387
REMARK  156  A    between atoms: _387  and  _388
REMARK  157  A    between atoms: _391  and  _393
REMARK  158  A    between atoms: _393  and  _394
REMARK  159  A    between atoms: _393  and  _396
REMARK  160  A    between atoms: _396  and  _397
REMARK  161  A    between atoms: _400  and  _402
REMARK  162  A    between atoms: _402  and  _403
REMARK  163  A    between atoms: _402  and  _405
REMARK  164  A    between atoms: _405  and  _406
REMARK  165  A    between atoms: _409  and  _411
REMARK  166  A    between atoms: _411  and  _412
REMARK  167  A    between atoms: _414  and  _416
REMARK  168  A    between atoms: _416  and  _417
REMARK  169  A    between atoms: _416  and  _419
REMARK  170  A    between atoms: _419  and  _420
REMARK  171  A    between atoms: _423  and  _425
REMARK  172  A    between atoms: _425  and  _426
REMARK  173  A    between atoms: _425  and  _428
REMARK  174  A    between atoms: _428  and  _429
REMARK  175  A    between atoms: _432  and  _434
REMARK  176  A    between atoms: _434  and  _435
REMARK  177  A    between atoms: _434  and  _437
REMARK  178  A    between atoms: _437  and  _438
REMARK  179  A    between atoms: _441  and  _443
REMARK  180  A    between atoms: _443  and  _444
REMARK  181  A    between atoms: _443  and  _446
REMARK  182  A    between atoms: _446  and  _447
REMARK  183  A    between atoms: _450  and  _452
REMARK  184  A    between atoms: _452  and  _453
REMARK  185  A    between atoms: _452  and  _455
REMARK  186  A    between atoms: _455  and  _456
REMARK  187  A    between atoms: _459  and  _461
REMARK  188  A    between atoms: _461  and  _462
REMARK  189  A    between atoms: _465  and  _467
REMARK  190  A    between atoms: _467  and  _468
REMARK  191  A    between atoms: _470  and  _472
REMARK  192  A    between atoms: _472  and  _473
REMARK  193  A    between atoms: _475  and  _477
REMARK  194  A    between atoms: _477  and  _478
REMARK  195  A    between atoms: _477  and  _480
REMARK  196  A    between atoms: _480  and  _481
REMARK  197  A    between atoms: _486  and  _487
REMARK  198  A    between atoms: _490  and  _491
REMARK  199  A    between atoms: _496  and  _498
REMARK  200  A    between atoms: _498  and  _499
REMARK  201  A    between atoms: _498  and  _501
REMARK  202  A    between atoms: _501  and  _502
REMARK  203  A    between atoms: _504  and  _506
REMARK  204  A    between atoms: _506  and  _507
REMARK  205  A    between atoms: _506  and  _509
REMARK  206  A    between atoms: _509  and  _510
REMARK  207  A    between atoms: _513  and  _515
REMARK  208  A    between atoms: _515  and  _516
REMARK  209  A    between atoms: _518  and  _520
REMARK  210  A    between atoms: _520  and  _521
REMARK  211  A    between atoms: _520  and  _523
REMARK  212  A    between atoms: _523  and  _524
REMARK  213  A    between atoms: _524  and  _525
REMARK  214  A    between atoms: _530  and  _532
REMARK  215  A    between atoms: _532  and  _533
REMARK  216  A    between atoms: _532  and  _535
REMARK  217  A    between atoms: _535  and  _536
REMARK  218  A    between atoms: _538  and  _540
REMARK  219  A    between atoms: _540  and  _541
REMARK  220  A    between atoms: _540  and  _543
REMARK  221  A    between atoms: _543  and  _544
REMARK  222  A    between atoms: _549  and  _551
REMARK  223  A    between atoms: _551  and  _552
REMARK  224  A    between atoms: _551  and  _554
REMARK  225  A    between atoms: _554  and  _555
REMARK  226  A    between atoms: _557  and  _559
REMARK  227  A    between atoms: _559  and  _560
REMARK  228  A    between atoms: _559  and  _562
REMARK  229  A    between atoms: _562  and  _563
REMARK  230  A    between atoms: _566  and  _568
REMARK  231  A    between atoms: _568  and  _569
REMARK  232  A    between atoms: _568  and  _571
REMARK  233  A    between atoms: _571  and  _572
REMARK  234  A    between atoms: _578  and  _580
REMARK  235  A    between atoms: _580  and  _581
REMARK  236  A    between atoms: _580  and  _583
REMARK  237  A    between atoms: _583  and  _584
REMARK  238  A    between atoms: _586  and  _588
REMARK  239  A    between atoms: _588  and  _589
REMARK  240  A    between atoms: _588  and  _591
REMARK  241  A    between atoms: _591  and  _592
REMARK  242  A    between atoms: _595  and  _597
REMARK  243  A    between atoms: _597  and  _598
REMARK  244  A    between atoms: _597  and  _600
REMARK  245  A    between atoms: _600  and  _601
REMARK  246  A    between atoms: _607  and  _609
REMARK  247  A    between atoms: _609  and  _610
REMARK  248  A    between atoms: _612  and  _614
REMARK  249  A    between atoms: _614  and  _615
REMARK  250  A    between atoms: _614  and  _617
REMARK  251  A    between atoms: _617  and  _618
REMARK                            x       y       z     vdW  Elec       q    Type
REMARK                         _______ _______ _______ _____ _____    ______ ____
ROOT
ATOM      1  O   HOH     1      13.478   9.729  12.791  0.00  0.00    +0.000 OA
ENDROOT
TORSDOF 0
REMARK  Name = ../refined-set-2016/1bxq/1bxq_pocket.pdb
REMARK  251 active torsions:
REMARK  status: ('A' for Active; 'I' for Inactive)
REMARK    1  A    between atoms: _1  and  _3
REMARK    2  A    between atoms: _3  and  _4
REMARK    3  A    between atoms: _3  and  _6
REMARK    4  A    between atoms: _6  and  _7
REMARK    5  A    between atoms: _10  and  _12
REMARK    6  A    between atoms: _12  and  _13
REMARK    7  A    between atoms: _16  and  _18
REMARK    8  A    between atoms: _18  and  _19
REMARK    9  A    between atoms: _18  and  _21
REMARK   10  A    between atoms: _21  and  _22
REMARK   11  A    between atoms: _27  and  _29
REMARK   12  A    between atoms: _29  and  _30
REMARK   13  A    between atoms: _29  and  _32
REMARK   14  A    between atoms: _32  and  _33
REMARK   15  A    between atoms: _36  and  _38
REMARK   16  A    between atoms: _38  and  _39
REMARK   17  A    between atoms: _38  and  _41
REMARK   18  A    between atoms: _41  and  _42
REMARK   19  A    between atoms: _42  and  _43
REMARK   20  A    between atoms: _46  and  _48
REMARK   21  A    between atoms: _48  and  _49
REMARK   22  A    between atoms: _48  and  _51
REMARK   23  A    between atoms: _51  and  _52
REMARK   24  A    between atoms: _52  and  _53
REMARK   25  A    between atoms: _56  and  _58
REMARK   26  A    between atoms: _58  and  _59
REMARK   27  A    between atoms: _58  and  _61
REMARK   28  A    between atoms: _61  and  _62
REMARK   29  A    between atoms: _67  and  _68
REMARK   30  A    between atoms: _70  and  _72
REMARK   31  A    between atoms: _72  and  _73
REMARK   32  A    between atoms: _72  and  _75
REMARK   33  A    between atoms: _75  and  _76
REMARK   34  A    between atoms: _81  and  _83
REMARK   35  A    between atoms: _83  and  _84
REMARK   36  A    between atoms: _83  and  _86
REMARK   37  A    between atoms: _86  and  _87
REMARK   38  A    between atoms: _93  and  _95
REMARK   39  A    between atoms: _95  and  _96
REMARK   40  A    between atoms: _95  and  _98
REMARK   41  A    between atoms: _98  and  _99
REMARK   42  A    between atoms: _102  and  _104
REMARK   43  A    between atoms: _104  and  _105
REMARK   44  A    between atoms: _104  and  _107
REMARK   45  A    between atoms: _107  and  _108
REMARK   46  A    between atoms: _111  and  _113
REMARK   47  A    between atoms: _113  and  _114
REMARK   48  A    between atoms: _116  and  _118
REMARK   49  A    between atoms: _118  and  _119
REMARK   50  A    between atoms: _118  and  _121
REMARK   51  A    between atoms: _121  and  _122
REMARK   52  A    between atoms: _124  and  _126
REMARK   53  A    between atoms: _126  and  _127
REMARK   54  A    between atoms: _130  and  _132
REMARK   55  A    between atoms: _132  and  _133
REMARK   56  A    between atoms: _132  and  _135
REMARK   57  A    between atoms: _135  and  _136
REMARK   58  A    between atoms: _139  and  _141
REMARK   59  A    between atoms: _141  and  _142
REMARK   60  A    between atoms: _141  and  _144
REMARK   61  A    between atoms: _144  and  _145
REMARK   62  A    between atoms: _155  and  _157
REMARK   63  A    between atoms: _157  and  _158
REMARK   64  A    between atoms: _157  and  _160
REMARK   65  A    between atoms: _160  and  _161
REMARK   66  A    between atoms: _164  and  _166
REMARK   67  A    between atoms: _166  and  _167
REMARK   68  A    between atoms: _166  and  _169
REMARK   69  A    between atoms: _169  and  _170
REMARK   70  A    between atoms: _172  and  _174
REMARK   71  A    between atoms: _174  and  _175
REMARK   72  A    between atoms: _174  and  _177
REMARK   73  A    between atoms: _177  and  _178
REMARK   74  A    between atoms: _183  and  _184
REMARK   75  A    between atoms: _186  and  _188
REMARK   76  A    between atoms: _188  and  _189
REMARK   77  A    between atoms: _191  and  _193
REMARK   78  A    between atoms: _193  and  _194
REMARK   79  A    between atoms: _193  and  _196
REMARK   80  A    between atoms: _196  and  _197
REMARK   81  A    between atoms: _200  and  _202
REMARK   82  A    between atoms: _202  and  _203
REMARK   83  A    between atoms: _205  and  _207
REMARK   84  A    between atoms: _207  and  _208
REMARK   85  A    between atoms: _207  and  _210
REMARK   86  A    between atoms: _210  and  _211
REMARK   87  A    between atoms: _213  and  _215
REMARK   88  A    between atoms: _215  and  _216
REMARK   89  A    between atoms: _215  and  _218
REMARK   90  A    between atoms: _218  and  _219
REMARK   91  A    between atoms: _221  and  _223
REMARK   92  A    between atoms: _223  and  _224
REMARK   93  A    between atoms: _223  and  _226
REMARK   94  A    between atoms: _226  and  _227
REMARK   95  A    between atoms: _229  and  _231
REMARK   96  A    between atoms: _231  and  _232
REMARK   97  A    between atoms: _231  and  _234
REMARK   98  A    between atoms: _234  and  _235
REMARK   99  A    between atoms: _235  and  _236
REMARK  100  A    between atoms: _241  and  _243
REMARK  101  A    between atoms: _243  and  _244
REMARK  102  A    between atoms: _243  and  _246
REMARK  103  A    between atoms: _246  and  _247
REMARK  104  A    between atoms: _253  and  _255
REMARK  105  A    between atoms: _255  and  _256
REMARK  106  A    between atoms: _255  and  _258
REMARK  107  A    between atoms: _258  and  _259
REMARK  108  A    between atoms: _262  and  _264
REMARK  109  A    between atoms: _264  and  _265
REMARK  110  A    between atoms: _264  and  _267
REMARK  111  A    between atoms: _267  and  _268
REMARK  112  A    between atoms: _273  and  _275
REMARK  113  A    between atoms: _275  and  _276
REMARK  114  A    between atoms: _275  and  _278
REMARK  115  A    between atoms: _278  and  _279
REMARK  116  A    between atoms: _284  and  _286
REMARK  117  A    between atoms: _286  and  _287
REMARK  118  A    between atoms: _289  and  _291
REMARK  119  A    between atoms: _291  and  _292
REMARK  120  A    between atoms: _291  and  _294
REMARK  121  A    between atoms: _294  and  _295
REMARK  122  A    between atoms: _298  and  _300
REMARK  123  A    between atoms: _300  and  _301
REMARK  124  A    between atoms: _300  and  _303
REMARK  125  A    between atoms: _303  and  _304
REMARK  126  A    between atoms: _307  and  _309
REMARK  127  A    between atoms: _309  and  _310
REMARK  128  A    between atoms: _312  and  _314
REMARK  129  A    between atoms: _314  and  _315
REMARK  130  A    between atoms: _314  and  _317
REMARK  131  A    between atoms: _317  and  _318
REMARK  132  A    between atoms: _321  and  _323
REMARK  133  A    between atoms: _323  and  _324
REMARK  134  A    between atoms: _327  and  _329
REMARK  135  A    between atoms: _329  and  _330
REMARK  136  A    between atoms: _329  and  _332
REMARK  137  A    between atoms: _332  and  _333
REMARK  138  A    between atoms: _336  and  _338
REMARK  139  A    between atoms: _338  and  _339
REMARK  140  A    between atoms: _338  and  _341
REMARK  141  A    between atoms: _341  and  _342
REMARK  142  A    between atoms: _342  and  _343
REMARK  143  A    between atoms: _348  and  _350
REMARK  144  A    between atoms: _350  and  _351
REMARK  145  A    between atoms: _350  and  _353
REMARK  146  A    between atoms: _353  and  _354
REMARK  147  A    between atoms: _360  and  _362
REMARK  148  A    between atoms: _362  and  _363
REMARK  149  A    between atoms: _362  and  _365
REMARK  150  A    between atoms: _365  and  _366
REMARK  151  A    between atoms: _376  and  _378
REMARK  152  A    between atoms: _378  and  _379
REMARK  153  A    between atoms: _378  and  _381
REMARK  154  A    between atoms: _381  and  _382
REMARK  155  A    between atoms: _385  and  _387
REMARK  156  A    between atoms: _387  and  _388
REMARK  157  A    between atoms: _391  and  _393
REMARK  158  A    between atoms: _393  and  _394
REMARK  159  A    between atoms: _393  and  _396
REMARK  160  A    between atoms: _396  and  _397
REMARK  161  A    between atoms: _400  and  _402
REMARK  162  A    between atoms: _402  and  _403
REMARK  163  A    between atoms: _402  and  _405
REMARK  164  A    between atoms: _405  and  _406
REMARK  165  A    between atoms: _409  and  _411
REMARK  166  A    between atoms: _411  and  _412
REMARK  167  A    between atoms: _414  and  _416
REMARK  168  A    between atoms: _416  and  _417
REMARK  169  A    between atoms: _416  and  _419
REMARK  170  A    between atoms: _419  and  _420
REMARK  171  A    between atoms: _423  and  _425
REMARK  172  A    between atoms: _425  and  _426
REMARK  173  A    between atoms: _425  and  _428
REMARK  174  A    between atoms: _428  and  _429
REMARK  175  A    between atoms: _432  and  _434
REMARK  176  A    between atoms: _434  and  _435
REMARK  177  A    between atoms: _434  and  _437
REMARK  178  A    between atoms: _437  and  _438
REMARK  179  A    between atoms: _441  and  _443
REMARK  180  A    between atoms: _443  and  _444
REMARK  181  A    between atoms: _443  and  _446
REMARK  182  A    between atoms: _446  and  _447
REMARK  183  A    between atoms: _450  and  _452
REMARK  184  A    between atoms: _452  and  _453
REMARK  185  A    between atoms: _452  and  _455
REMARK  186  A    between atoms: _455  and  _456
REMARK  187  A    between atoms: _459  and  _461
REMARK  188  A    between atoms: _461  and  _462
REMARK  189  A    between atoms: _465  and  _467
REMARK  190  A    between atoms: _467  and  _468
REMARK  191  A    between atoms: _470  and  _472
REMARK  192  A    between atoms: _472  and  _473
REMARK  193  A    between atoms: _475  and  _477
REMARK  194  A    between atoms: _477  and  _478
REMARK  195  A    between atoms: _477  and  _480
REMARK  196  A    between atoms: _480  and  _481
REMARK  197  A    between atoms: _486  and  _487
REMARK  198  A    between atoms: _490  and  _491
REMARK  199  A    between atoms: _496  and  _498
REMARK  200  A    between atoms: _498  and  _499
REMARK  201  A    between atoms: _498  and  _501
REMARK  202  A    between atoms: _501  and  _502
REMARK  203  A    between atoms: _504  and  _506
REMARK  204  A    between atoms: _506  and  _507
REMARK  205  A    between atoms: _506  and  _509
REMARK  206  A    between atoms: _509  and  _510
REMARK  207  A    between atoms: _513  and  _515
REMARK  208  A    between atoms: _515  and  _516
REMARK  209  A    between atoms: _518  and  _520
REMARK  210  A    between atoms: _520  and  _521
REMARK  211  A    between atoms: _520  and  _523
REMARK  212  A    between atoms: _523  and  _524
REMARK  213  A    between atoms: _524  and  _525
REMARK  214  A    between atoms: _530  and  _532
REMARK  215  A    between atoms: _532  and  _533
REMARK  216  A    between atoms: _532  and  _535
REMARK  217  A    between atoms: _535  and  _536
REMARK  218  A    between atoms: _538  and  _540
REMARK  219  A    between atoms: _540  and  _541
REMARK  220  A    between atoms: _540  and  _543
REMARK  221  A    between atoms: _543  and  _544
REMARK  222  A    between atoms: _549  and  _551
REMARK  223  A    between atoms: _551  and  _552
REMARK  224  A    between atoms: _551  and  _554
REMARK  225  A    between atoms: _554  and  _555
REMARK  226  A    between atoms: _557  and  _559
REMARK  227  A    between atoms: _559  and  _560
REMARK  228  A    between atoms: _559  and  _562
REMARK  229  A    between atoms: _562  and  _563
REMARK  230  A    between atoms: _566  and  _568
REMARK  231  A    between atoms: _568  and  _569
REMARK  232  A    between atoms: _568  and  _571
REMARK  233  A    between atoms: _571  and  _572
REMARK  234  A    between atoms: _578  and  _580
REMARK  235  A    between atoms: _580  and  _581
REMARK  236  A    between atoms: _580  and  _583
REMARK  237  A    between atoms: _583  and  _584
REMARK  238  A    between atoms: _586  and  _588
REMARK  239  A    between atoms: _588  and  _589
REMARK  240  A    between atoms: _588  and  _591
REMARK  241  A    between atoms: _591  and  _592
REMARK  242  A    between atoms: _595  and  _597
REMARK  243  A    between atoms: _597  and  _598
REMARK  244  A    between atoms: _597  and  _600
REMARK  245  A    between atoms: _600  and  _601
REMARK  246  A    between atoms: _607  and  _609
REMARK  247  A    between atoms: _609  and  _610
REMARK  248  A    between atoms: _612  and  _614
REMARK  249  A    between atoms: _614  and  _615
REMARK  250  A    between atoms: _614  and  _617
REMARK  251  A    between atoms: _617  and  _618
REMARK                            x       y       z     vdW  Elec       q    Type
REMARK                         _______ _______ _______ _____ _____    ______ ____
ROOT
ATOM      1  O   HOH     1      31.296  14.565  22.958  0.00  0.00    +0.000 OA
ENDROOT
TORSDOF 0
REMARK  Name = ../refined-set-2016/1bxq/1bxq_pocket.pdb
REMARK  251 active torsions:
REMARK  status: ('A' for Active; 'I' for Inactive)
REMARK    1  A    between atoms: _1  and  _3
REMARK    2  A    between atoms: _3  and  _4
REMARK    3  A    between atoms: _3  and  _6
REMARK    4  A    between atoms: _6  and  _7
REMARK    5  A    between atoms: _10  and  _12
REMARK    6  A    between atoms: _12  and  _13
REMARK    7  A    between atoms: _16  and  _18
REMARK    8  A    between atoms: _18  and  _19
REMARK    9  A    between atoms: _18  and  _21
REMARK   10  A    between atoms: _21  and  _22
REMARK   11  A    between atoms: _27  and  _29
REMARK   12  A    between atoms: _29  and  _30
REMARK   13  A    between atoms: _29  and  _32
REMARK   14  A    between atoms: _32  and  _33
REMARK   15  A    between atoms: _36  and  _38
REMARK   16  A    between atoms: _38  and  _39
REMARK   17  A    between atoms: _38  and  _41
REMARK   18  A    between atoms: _41  and  _42
REMARK   19  A    between atoms: _42  and  _43
REMARK   20  A    between atoms: _46  and  _48
REMARK   21  A    between atoms: _48  and  _49
REMARK   22  A    between atoms: _48  and  _51
REMARK   23  A    between atoms: _51  and  _52
REMARK   24  A    between atoms: _52  and  _53
REMARK   25  A    between atoms: _56  and  _58
REMARK   26  A    between atoms: _58  and  _59
REMARK   27  A    between atoms: _58  and  _61
REMARK   28  A    between atoms: _61  and  _62
REMARK   29  A    between atoms: _67  and  _68
REMARK   30  A    between atoms: _70  and  _72
REMARK   31  A    between atoms: _72  and  _73
REMARK   32  A    between atoms: _72  and  _75
REMARK   33  A    between atoms: _75  and  _76
REMARK   34  A    between atoms: _81  and  _83
REMARK   35  A    between atoms: _83  and  _84
REMARK   36  A    between atoms: _83  and  _86
REMARK   37  A    between atoms: _86  and  _87
REMARK   38  A    between atoms: _93  and  _95
REMARK   39  A    between atoms: _95  and  _96
REMARK   40  A    between atoms: _95  and  _98
REMARK   41  A    between atoms: _98  and  _99
REMARK   42  A    between atoms: _102  and  _104
REMARK   43  A    between atoms: _104  and  _105
REMARK   44  A    between atoms: _104  and  _107
REMARK   45  A    between atoms: _107  and  _108
REMARK   46  A    between atoms: _111  and  _113
REMARK   47  A    between atoms: _113  and  _114
REMARK   48  A    between atoms: _116  and  _118
REMARK   49  A    between atoms: _118  and  _119
REMARK   50  A    between atoms: _118  and  _121
REMARK   51  A    between atoms: _121  and  _122
REMARK   52  A    between atoms: _124  and  _126
REMARK   53  A    between atoms: _126  and  _127
REMARK   54  A    between atoms: _130  and  _132
REMARK   55  A    between atoms: _132  and  _133
REMARK   56  A    between atoms: _132  and  _135
REMARK   57  A    between atoms: _135  and  _136
REMARK   58  A    between atoms: _139  and  _141
REMARK   59  A    between atoms: _141  and  _142
REMARK   60  A    between atoms: _141  and  _144
REMARK   61  A    between atoms: _144  and  _145
REMARK   62  A    between atoms: _155  and  _157
REMARK   63  A    between atoms: _157  and  _158
REMARK   64  A    between atoms: _157  and  _160
REMARK   65  A    between atoms: _160  and  _161
REMARK   66  A    between atoms: _164  and  _166
REMARK   67  A    between atoms: _166  and  _167
REMARK   68  A    between atoms: _166  and  _169
REMARK   69  A    between atoms: _169  and  _170
REMARK   70  A    between atoms: _172  and  _174
REMARK   71  A    between atoms: _174  and  _175
REMARK   72  A    between atoms: _174  and  _177
REMARK   73  A    between atoms: _177  and  _178
REMARK   74  A    between atoms: _183  and  _184
REMARK   75  A    between atoms: _186  and  _188
REMARK   76  A    between atoms: _188  and  _189
REMARK   77  A    between atoms: _191  and  _193
REMARK   78  A    between atoms: _193  and  _194
REMARK   79  A    between atoms: _193  and  _196
REMARK   80  A    between atoms: _196  and  _197
REMARK   81  A    between atoms: _200  and  _202
REMARK   82  A    between atoms: _202  and  _203
REMARK   83  A    between atoms: _205  and  _207
REMARK   84  A    between atoms: _207  and  _208
REMARK   85  A    between atoms: _207  and  _210
REMARK   86  A    between atoms: _210  and  _211
REMARK   87  A    between atoms: _213  and  _215
REMARK   88  A    between atoms: _215  and  _216
REMARK   89  A    between atoms: _215  and  _218
REMARK   90  A    between atoms: _218  and  _219
REMARK   91  A    between atoms: _221  and  _223
REMARK   92  A    between atoms: _223  and  _224
REMARK   93  A    between atoms: _223  and  _226
REMARK   94  A    between atoms: _226  and  _227
REMARK   95  A    between atoms: _229  and  _231
REMARK   96  A    between atoms: _231  and  _232
REMARK   97  A    between atoms: _231  and  _234
REMARK   98  A    between atoms: _234  and  _235
REMARK   99  A    between atoms: _235  and  _236
REMARK  100  A    between atoms: _241  and  _243
REMARK  101  A    between atoms: _243  and  _244
REMARK  102  A    between atoms: _243  and  _246
REMARK  103  A    between atoms: _246  and  _247
REMARK  104  A    between atoms: _253  and  _255
REMARK  105  A    between atoms: _255  and  _256
REMARK  106  A    between atoms: _255  and  _258
REMARK  107  A    between atoms: _258  and  _259
REMARK  108  A    between atoms: _262  and  _264
REMARK  109  A    between atoms: _264  and  _265
REMARK  110  A    between atoms: _264  and  _267
REMARK  111  A    between atoms: _267  and  _268
REMARK  112  A    between atoms: _273  and  _275
REMARK  113  A    between atoms: _275  and  _276
REMARK  114  A    between atoms: _275  and  _278
REMARK  115  A    between atoms: _278  and  _279
REMARK  116  A    between atoms: _284  and  _286
REMARK  117  A    between atoms: _286  and  _287
REMARK  118  A    between atoms: _289  and  _291
REMARK  119  A    between atoms: _291  and  _292
REMARK  120  A    between atoms: _291  and  _294
REMARK  121  A    between atoms: _294  and  _295
REMARK  122  A    between atoms: _298  and  _300
REMARK  123  A    between atoms: _300  and  _301
REMARK  124  A    between atoms: _300  and  _303
REMARK  125  A    between atoms: _303  and  _304
REMARK  126  A    between atoms: _307  and  _309
REMARK  127  A    between atoms: _309  and  _310
REMARK  128  A    between atoms: _312  and  _314
REMARK  129  A    between atoms: _314  and  _315
REMARK  130  A    between atoms: _314  and  _317
REMARK  131  A    between atoms: _317  and  _318
REMARK  132  A    between atoms: _321  and  _323
REMARK  133  A    between atoms: _323  and  _324
REMARK  134  A    between atoms: _327  and  _329
REMARK  135  A    between atoms: _329  and  _330
REMARK  136  A    between atoms: _329  and  _332
REMARK  137  A    between atoms: _332  and  _333
REMARK  138  A    between atoms: _336  and  _338
REMARK  139  A    between atoms: _338  and  _339
REMARK  140  A    between atoms: _338  and  _341
REMARK  141  A    between atoms: _341  and  _342
REMARK  142  A    between atoms: _342  and  _343
REMARK  143  A    between atoms: _348  and  _350
REMARK  144  A    between atoms: _350  and  _351
REMARK  145  A    between atoms: _350  and  _353
REMARK  146  A    between atoms: _353  and  _354
REMARK  147  A    between atoms: _360  and  _362
REMARK  148  A    between atoms: _362  and  _363
REMARK  149  A    between atoms: _362  and  _365
REMARK  150  A    between atoms: _365  and  _366
REMARK  151  A    between atoms: _376  and  _378
REMARK  152  A    between atoms: _378  and  _379
REMARK  153  A    between atoms: _378  and  _381
REMARK  154  A    between atoms: _381  and  _382
REMARK  155  A    between atoms: _385  and  _387
REMARK  156  A    between atoms: _387  and  _388
REMARK  157  A    between atoms: _391  and  _393
REMARK  158  A    between atoms: _393  and  _394
REMARK  159  A    between atoms: _393  and  _396
REMARK  160  A    between atoms: _396  and  _397
REMARK  161  A    between atoms: _400  and  _402
REMARK  162  A    between atoms: _402  and  _403
REMARK  163  A    between atoms: _402  and  _405
REMARK  164  A    between atoms: _405  and  _406
REMARK  165  A    between atoms: _409  and  _411
REMARK  166  A    between atoms: _411  and  _412
REMARK  167  A    between atoms: _414  and  _416
REMARK  168  A    between atoms: _416  and  _417
REMARK  169  A    between atoms: _416  and  _419
REMARK  170  A    between atoms: _419  and  _420
REMARK  171  A    between atoms: _423  and  _425
REMARK  172  A    between atoms: _425  and  _426
REMARK  173  A    between atoms: _425  and  _428
REMARK  174  A    between atoms: _428  and  _429
REMARK  175  A    between atoms: _432  and  _434
REMARK  176  A    between atoms: _434  and  _435
REMARK  177  A    between atoms: _434  and  _437
REMARK  178  A    between atoms: _437  and  _438
REMARK  179  A    between atoms: _441  and  _443
REMARK  180  A    between atoms: _443  and  _444
REMARK  181  A    between atoms: _443  and  _446
REMARK  182  A    between atoms: _446  and  _447
REMARK  183  A    between atoms: _450  and  _452
REMARK  184  A    between atoms: _452  and  _453
REMARK  185  A    between atoms: _452  and  _455
REMARK  186  A    between atoms: _455  and  _456
REMARK  187  A    between atoms: _459  and  _461
REMARK  188  A    between atoms: _461  and  _462
REMARK  189  A    between atoms: _465  and  _467
REMARK  190  A    between atoms: _467  and  _468
REMARK  191  A    between atoms: _470  and  _472
REMARK  192  A    between atoms: _472  and  _473
REMARK  193  A    between atoms: _475  and  _477
REMARK  194  A    between atoms: _477  and  _478
REMARK  195  A    between atoms: _477  and  _480
REMARK  196  A    between atoms: _480  and  _481
REMARK  197  A    between atoms: _486  and  _487
REMARK  198  A    between atoms: _490  and  _491
REMARK  199  A    between atoms: _496  and  _498
REMARK  200  A    between atoms: _498  and  _499
REMARK  201  A    between atoms: _498  and  _501
REMARK  202  A    between atoms: _501  and  _502
REMARK  203  A    between atoms: _504  and  _506
REMARK  204  A    between atoms: _506  and  _507
REMARK  205  A    between atoms: _506  and  _509
REMARK  206  A    between atoms: _509  and  _510
REMARK  207  A    between atoms: _513  and  _515
REMARK  208  A    between atoms: _515  and  _516
REMARK  209  A    between atoms: _518  and  _520
REMARK  210  A    between atoms: _520  and  _521
REMARK  211  A    between atoms: _520  and  _523
REMARK  212  A    between atoms: _523  and  _524
REMARK  213  A    between atoms: _524  and  _525
REMARK  214  A    between atoms: _530  and  _532
REMARK  215  A    between atoms: _532  and  _533
REMARK  216  A    between atoms: _532  and  _535
REMARK  217  A    between atoms: _535  and  _536
REMARK  218  A    between atoms: _538  and  _540
REMARK  219  A    between atoms: _540  and  _541
REMARK  220  A    between atoms: _540  and  _543
REMARK  221  A    between atoms: _543  and  _544
REMARK  222  A    between atoms: _549  and  _551
REMARK  223  A    between atoms: _551  and  _552
REMARK  224  A    between atoms: _551  and  _554
REMARK  225  A    between atoms: _554  and  _555
REMARK  226  A    between atoms: _557  and  _559
REMARK  227  A    between atoms: _559  and  _560
REMARK  228  A    between atoms: _559  and  _562
REMARK  229  A    between atoms: _562  and  _563
REMARK  230  A    between atoms: _566  and  _568
REMARK  231  A    between atoms: _568  and  _569
REMARK  232  A    between atoms: _568  and  _571
REMARK  233  A    between atoms: _571  and  _572
REMARK  234  A    between atoms: _578  and  _580
REMARK  235  A    between atoms: _580  and  _581
REMARK  236  A    between atoms: _580  and  _583
REMARK  237  A    between atoms: _583  and  _584
REMARK  238  A    between atoms: _586  and  _588
REMARK  239  A    between atoms: _588  and  _589
REMARK  240  A    between atoms: _588  and  _591
REMARK  241  A    between atoms: _591  and  _592
REMARK  242  A    between atoms: _595  and  _597
REMARK  243  A    between atoms: _597  and  _598
REMARK  244  A    between atoms: _597  and  _600
REMARK  245  A    between atoms: _600  and  _601
REMARK  246  A    between atoms: _607  and  _609
REMARK  247  A    between atoms: _609  and  _610
REMARK  248  A    between atoms: _612  and  _614
REMARK  249  A    between atoms: _614  and  _615
REMARK  250  A    between atoms: _614  and  _617
REMARK  251  A    between atoms: _617  and  _618
REMARK                            x       y       z     vdW  Elec       q    Type
REMARK                         _______ _______ _______ _____ _____    ______ ____
ROOT
ATOM      1  O   HOH     1      21.956   8.985  15.382  0.00  0.00    +0.000 OA
ENDROOT
TORSDOF 0
REMARK  Name = ../refined-set-2016/1bxq/1bxq_pocket.pdb
REMARK  251 active torsions:
REMARK  status: ('A' for Active; 'I' for Inactive)
REMARK    1  A    between atoms: _1  and  _3
REMARK    2  A    between atoms: _3  and  _4
REMARK    3  A    between atoms: _3  and  _6
REMARK    4  A    between atoms: _6  and  _7
REMARK    5  A    between atoms: _10  and  _12
REMARK    6  A    between atoms: _12  and  _13
REMARK    7  A    between atoms: _16  and  _18
REMARK    8  A    between atoms: _18  and  _19
REMARK    9  A    between atoms: _18  and  _21
REMARK   10  A    between atoms: _21  and  _22
REMARK   11  A    between atoms: _27  and  _29
REMARK   12  A    between atoms: _29  and  _30
REMARK   13  A    between atoms: _29  and  _32
REMARK   14  A    between atoms: _32  and  _33
REMARK   15  A    between atoms: _36  and  _38
REMARK   16  A    between atoms: _38  and  _39
REMARK   17  A    between atoms: _38  and  _41
REMARK   18  A    between atoms: _41  and  _42
REMARK   19  A    between atoms: _42  and  _43
REMARK   20  A    between atoms: _46  and  _48
REMARK   21  A    between atoms: _48  and  _49
REMARK   22  A    between atoms: _48  and  _51
REMARK   23  A    between atoms: _51  and  _52
REMARK   24  A    between atoms: _52  and  _53
REMARK   25  A    between atoms: _56  and  _58
REMARK   26  A    between atoms: _58  and  _59
REMARK   27  A    between atoms: _58  and  _61
REMARK   28  A    between atoms: _61  and  _62
REMARK   29  A    between atoms: _67  and  _68
REMARK   30  A    between atoms: _70  and  _72
REMARK   31  A    between atoms: _72  and  _73
REMARK   32  A    between atoms: _72  and  _75
REMARK   33  A    between atoms: _75  and  _76
REMARK   34  A    between atoms: _81  and  _83
REMARK   35  A    between atoms: _83  and  _84
REMARK   36  A    between atoms: _83  and  _86
REMARK   37  A    between atoms: _86  and  _87
REMARK   38  A    between atoms: _93  and  _95
REMARK   39  A    between atoms: _95  and  _96
REMARK   40  A    between atoms: _95  and  _98
REMARK   41  A    between atoms: _98  and  _99
REMARK   42  A    between atoms: _102  and  _104
REMARK   43  A    between atoms: _104  and  _105
REMARK   44  A    between atoms: _104  and  _107
REMARK   45  A    between atoms: _107  and  _108
REMARK   46  A    between atoms: _111  and  _113
REMARK   47  A    between atoms: _113  and  _114
REMARK   48  A    between atoms: _116  and  _118
REMARK   49  A    between atoms: _118  and  _119
REMARK   50  A    between atoms: _118  and  _121
REMARK   51  A    between atoms: _121  and  _122
REMARK   52  A    between atoms: _124  and  _126
REMARK   53  A    between atoms: _126  and  _127
REMARK   54  A    between atoms: _130  and  _132
REMARK   55  A    between atoms: _132  and  _133
REMARK   56  A    between atoms: _132  and  _135
REMARK   57  A    between atoms: _135  and  _136
REMARK   58  A    between atoms: _139  and  _141
REMARK   59  A    between atoms: _141  and  _142
REMARK   60  A    between atoms: _141  and  _144
REMARK   61  A    between atoms: _144  and  _145
REMARK   62  A    between atoms: _155  and  _157
REMARK   63  A    between atoms: _157  and  _158
REMARK   64  A    between atoms: _157  and  _160
REMARK   65  A    between atoms: _160  and  _161
REMARK   66  A    between atoms: _164  and  _166
REMARK   67  A    between atoms: _166  and  _167
REMARK   68  A    between atoms: _166  and  _169
REMARK   69  A    between atoms: _169  and  _170
REMARK   70  A    between atoms: _172  and  _174
REMARK   71  A    between atoms: _174  and  _175
REMARK   72  A    between atoms: _174  and  _177
REMARK   73  A    between atoms: _177  and  _178
REMARK   74  A    between atoms: _183  and  _184
REMARK   75  A    between atoms: _186  and  _188
REMARK   76  A    between atoms: _188  and  _189
REMARK   77  A    between atoms: _191  and  _193
REMARK   78  A    between atoms: _193  and  _194
REMARK   79  A    between atoms: _193  and  _196
REMARK   80  A    between atoms: _196  and  _197
REMARK   81  A    between atoms: _200  and  _202
REMARK   82  A    between atoms: _202  and  _203
REMARK   83  A    between atoms: _205  and  _207
REMARK   84  A    between atoms: _207  and  _208
REMARK   85  A    between atoms: _207  and  _210
REMARK   86  A    between atoms: _210  and  _211
REMARK   87  A    between atoms: _213  and  _215
REMARK   88  A    between atoms: _215  and  _216
REMARK   89  A    between atoms: _215  and  _218
REMARK   90  A    between atoms: _218  and  _219
REMARK   91  A    between atoms: _221  and  _223
REMARK   92  A    between atoms: _223  and  _224
REMARK   93  A    between atoms: _223  and  _226
REMARK   94  A    between atoms: _226  and  _227
REMARK   95  A    between atoms: _229  and  _231
REMARK   96  A    between atoms: _231  and  _232
REMARK   97  A    between atoms: _231  and  _234
REMARK   98  A    between atoms: _234  and  _235
REMARK   99  A    between atoms: _235  and  _236
REMARK  100  A    between atoms: _241  and  _243
REMARK  101  A    between atoms: _243  and  _244
REMARK  102  A    between atoms: _243  and  _246
REMARK  103  A    between atoms: _246  and  _247
REMARK  104  A    between atoms: _253  and  _255
REMARK  105  A    between atoms: _255  and  _256
REMARK  106  A    between atoms: _255  and  _258
REMARK  107  A    between atoms: _258  and  _259
REMARK  108  A    between atoms: _262  and  _264
REMARK  109  A    between atoms: _264  and  _265
REMARK  110  A    between atoms: _264  and  _267
REMARK  111  A    between atoms: _267  and  _268
REMARK  112  A    between atoms: _273  and  _275
REMARK  113  A    between atoms: _275  and  _276
REMARK  114  A    between atoms: _275  and  _278
REMARK  115  A    between atoms: _278  and  _279
REMARK  116  A    between atoms: _284  and  _286
REMARK  117  A    between atoms: _286  and  _287
REMARK  118  A    between atoms: _289  and  _291
REMARK  119  A    between atoms: _291  and  _292
REMARK  120  A    between atoms: _291  and  _294
REMARK  121  A    between atoms: _294  and  _295
REMARK  122  A    between atoms: _298  and  _300
REMARK  123  A    between atoms: _300  and  _301
REMARK  124  A    between atoms: _300  and  _303
REMARK  125  A    between atoms: _303  and  _304
REMARK  126  A    between atoms: _307  and  _309
REMARK  127  A    between atoms: _309  and  _310
REMARK  128  A    between atoms: _312  and  _314
REMARK  129  A    between atoms: _314  and  _315
REMARK  130  A    between atoms: _314  and  _317
REMARK  131  A    between atoms: _317  and  _318
REMARK  132  A    between atoms: _321  and  _323
REMARK  133  A    between atoms: _323  and  _324
REMARK  134  A    between atoms: _327  and  _329
REMARK  135  A    between atoms: _329  and  _330
REMARK  136  A    between atoms: _329  and  _332
REMARK  137  A    between atoms: _332  and  _333
REMARK  138  A    between atoms: _336  and  _338
REMARK  139  A    between atoms: _338  and  _339
REMARK  140  A    between atoms: _338  and  _341
REMARK  141  A    between atoms: _341  and  _342
REMARK  142  A    between atoms: _342  and  _343
REMARK  143  A    between atoms: _348  and  _350
REMARK  144  A    between atoms: _350  and  _351
REMARK  145  A    between atoms: _350  and  _353
REMARK  146  A    between atoms: _353  and  _354
REMARK  147  A    between atoms: _360  and  _362
REMARK  148  A    between atoms: _362  and  _363
REMARK  149  A    between atoms: _362  and  _365
REMARK  150  A    between atoms: _365  and  _366
REMARK  151  A    between atoms: _376  and  _378
REMARK  152  A    between atoms: _378  and  _379
REMARK  153  A    between atoms: _378  and  _381
REMARK  154  A    between atoms: _381  and  _382
REMARK  155  A    between atoms: _385  and  _387
REMARK  156  A    between atoms: _387  and  _388
REMARK  157  A    between atoms: _391  and  _393
REMARK  158  A    between atoms: _393  and  _394
REMARK  159  A    between atoms: _393  and  _396
REMARK  160  A    between atoms: _396  and  _397
REMARK  161  A    between atoms: _400  and  _402
REMARK  162  A    between atoms: _402  and  _403
REMARK  163  A    between atoms: _402  and  _405
REMARK  164  A    between atoms: _405  and  _406
REMARK  165  A    between atoms: _409  and  _411
REMARK  166  A    between atoms: _411  and  _412
REMARK  167  A    between atoms: _414  and  _416
REMARK  168  A    between atoms: _416  and  _417
REMARK  169  A    between atoms: _416  and  _419
REMARK  170  A    between atoms: _419  and  _420
REMARK  171  A    between atoms: _423  and  _425
REMARK  172  A    between atoms: _425  and  _426
REMARK  173  A    between atoms: _425  and  _428
REMARK  174  A    between atoms: _428  and  _429
REMARK  175  A    between atoms: _432  and  _434
REMARK  176  A    between atoms: _434  and  _435
REMARK  177  A    between atoms: _434  and  _437
REMARK  178  A    between atoms: _437  and  _438
REMARK  179  A    between atoms: _441  and  _443
REMARK  180  A    between atoms: _443  and  _444
REMARK  181  A    between atoms: _443  and  _446
REMARK  182  A    between atoms: _446  and  _447
REMARK  183  A    between atoms: _450  and  _452
REMARK  184  A    between atoms: _452  and  _453
REMARK  185  A    between atoms: _452  and  _455
REMARK  186  A    between atoms: _455  and  _456
REMARK  187  A    between atoms: _459  and  _461
REMARK  188  A    between atoms: _461  and  _462
REMARK  189  A    between atoms: _465  and  _467
REMARK  190  A    between atoms: _467  and  _468
REMARK  191  A    between atoms: _470  and  _472
REMARK  192  A    between atoms: _472  and  _473
REMARK  193  A    between atoms: _475  and  _477
REMARK  194  A    between atoms: _477  and  _478
REMARK  195  A    between atoms: _477  and  _480
REMARK  196  A    between atoms: _480  and  _481
REMARK  197  A    between atoms: _486  and  _487
REMARK  198  A    between atoms: _490  and  _491
REMARK  199  A    between atoms: _496  and  _498
REMARK  200  A    between atoms: _498  and  _499
REMARK  201  A    between atoms: _498  and  _501
REMARK  202  A    between atoms: _501  and  _502
REMARK  203  A    between atoms: _504  and  _506
REMARK  204  A    between atoms: _506  and  _507
REMARK  205  A    between atoms: _506  and  _509
REMARK  206  A    between atoms: _509  and  _510
REMARK  207  A    between atoms: _513  and  _515
REMARK  208  A    between atoms: _515  and  _516
REMARK  209  A    between atoms: _518  and  _520
REMARK  210  A    between atoms: _520  and  _521
REMARK  211  A    between atoms: _520  and  _523
REMARK  212  A    between atoms: _523  and  _524
REMARK  213  A    between atoms: _524  and  _525
REMARK  214  A    between atoms: _530  and  _532
REMARK  215  A    between atoms: _532  and  _533
REMARK  216  A    between atoms: _532  and  _535
REMARK  217  A    between atoms: _535  and  _536
REMARK  218  A    between atoms: _538  and  _540
REMARK  219  A    between atoms: _540  and  _541
REMARK  220  A    between atoms: _540  and  _543
REMARK  221  A    between atoms: _543  and  _544
REMARK  222  A    between atoms: _549  and  _551
REMARK  223  A    between atoms: _551  and  _552
REMARK  224  A    between atoms: _551  and  _554
REMARK  225  A    between atoms: _554  and  _555
REMARK  226  A    between atoms: _557  and  _559
REMARK  227  A    between atoms: _559  and  _560
REMARK  228  A    between atoms: _559  and  _562
REMARK  229  A    between atoms: _562  and  _563
REMARK  230  A    between atoms: _566  and  _568
REMARK  231  A    between atoms: _568  and  _569
REMARK  232  A    between atoms: _568  and  _571
REMARK  233  A    between atoms: _571  and  _572
REMARK  234  A    between atoms: _578  and  _580
REMARK  235  A    between atoms: _580  and  _581
REMARK  236  A    between atoms: _580  and  _583
REMARK  237  A    between atoms: _583  and  _584
REMARK  238  A    between atoms: _586  and  _588
REMARK  239  A    between atoms: _588  and  _589
REMARK  240  A    between atoms: _588  and  _591
REMARK  241  A    between atoms: _591  and  _592
REMARK  242  A    between atoms: _595  and  _597
REMARK  243  A    between atoms: _597  and  _598
REMARK  244  A    between atoms: _597  and  _600
REMARK  245  A    between atoms: _600  and  _601
REMARK  246  A    between atoms: _607  and  _609
REMARK  247  A    between atoms: _609  and  _610
REMARK  248  A    between atoms: _612  and  _614
REMARK  249  A    between atoms: _614  and  _615
REMARK  250  A    between atoms: _614  and  _617
REMARK  251  A    between atoms: _617  and  _618
REMARK                            x       y       z     vdW  Elec       q    Type
REMARK                         _______ _______ _______ _____ _____    ______ ____
ROOT
ATOM      1  O   HOH     1      22.977  19.742  20.742  0.00  0.00    +0.000 OA
ENDROOT
TORSDOF 0
REMARK  Name = ../refined-set-2016/1bxq/1bxq_pocket.pdb
REMARK  251 active torsions:
REMARK  status: ('A' for Active; 'I' for Inactive)
REMARK    1  A    between atoms: _1  and  _3
REMARK    2  A    between atoms: _3  and  _4
REMARK    3  A    between atoms: _3  and  _6
REMARK    4  A    between atoms: _6  and  _7
REMARK    5  A    between atoms: _10  and  _12
REMARK    6  A    between atoms: _12  and  _13
REMARK    7  A    between atoms: _16  and  _18
REMARK    8  A    between atoms: _18  and  _19
REMARK    9  A    between atoms: _18  and  _21
REMARK   10  A    between atoms: _21  and  _22
REMARK   11  A    between atoms: _27  and  _29
REMARK   12  A    between atoms: _29  and  _30
REMARK   13  A    between atoms: _29  and  _32
REMARK   14  A    between atoms: _32  and  _33
REMARK   15  A    between atoms: _36  and  _38
REMARK   16  A    between atoms: _38  and  _39
REMARK   17  A    between atoms: _38  and  _41
REMARK   18  A    between atoms: _41  and  _42
REMARK   19  A    between atoms: _42  and  _43
REMARK   20  A    between atoms: _46  and  _48
REMARK   21  A    between atoms: _48  and  _49
REMARK   22  A    between atoms: _48  and  _51
REMARK   23  A    between atoms: _51  and  _52
REMARK   24  A    between atoms: _52  and  _53
REMARK   25  A    between atoms: _56  and  _58
REMARK   26  A    between atoms: _58  and  _59
REMARK   27  A    between atoms: _58  and  _61
REMARK   28  A    between atoms: _61  and  _62
REMARK   29  A    between atoms: _67  and  _68
REMARK   30  A    between atoms: _70  and  _72
REMARK   31  A    between atoms: _72  and  _73
REMARK   32  A    between atoms: _72  and  _75
REMARK   33  A    between atoms: _75  and  _76
REMARK   34  A    between atoms: _81  and  _83
REMARK   35  A    between atoms: _83  and  _84
REMARK   36  A    between atoms: _83  and  _86
REMARK   37  A    between atoms: _86  and  _87
REMARK   38  A    between atoms: _93  and  _95
REMARK   39  A    between atoms: _95  and  _96
REMARK   40  A    between atoms: _95  and  _98
REMARK   41  A    between atoms: _98  and  _99
REMARK   42  A    between atoms: _102  and  _104
REMARK   43  A    between atoms: _104  and  _105
REMARK   44  A    between atoms: _104  and  _107
REMARK   45  A    between atoms: _107  and  _108
REMARK   46  A    between atoms: _111  and  _113
REMARK   47  A    between atoms: _113  and  _114
REMARK   48  A    between atoms: _116  and  _118
REMARK   49  A    between atoms: _118  and  _119
REMARK   50  A    between atoms: _118  and  _121
REMARK   51  A    between atoms: _121  and  _122
REMARK   52  A    between atoms: _124  and  _126
REMARK   53  A    between atoms: _126  and  _127
REMARK   54  A    between atoms: _130  and  _132
REMARK   55  A    between atoms: _132  and  _133
REMARK   56  A    between atoms: _132  and  _135
REMARK   57  A    between atoms: _135  and  _136
REMARK   58  A    between atoms: _139  and  _141
REMARK   59  A    between atoms: _141  and  _142
REMARK   60  A    between atoms: _141  and  _144
REMARK   61  A    between atoms: _144  and  _145
REMARK   62  A    between atoms: _155  and  _157
REMARK   63  A    between atoms: _157  and  _158
REMARK   64  A    between atoms: _157  and  _160
REMARK   65  A    between atoms: _160  and  _161
REMARK   66  A    between atoms: _164  and  _166
REMARK   67  A    between atoms: _166  and  _167
REMARK   68  A    between atoms: _166  and  _169
REMARK   69  A    between atoms: _169  and  _170
REMARK   70  A    between atoms: _172  and  _174
REMARK   71  A    between atoms: _174  and  _175
REMARK   72  A    between atoms: _174  and  _177
REMARK   73  A    between atoms: _177  and  _178
REMARK   74  A    between atoms: _183  and  _184
REMARK   75  A    between atoms: _186  and  _188
REMARK   76  A    between atoms: _188  and  _189
REMARK   77  A    between atoms: _191  and  _193
REMARK   78  A    between atoms: _193  and  _194
REMARK   79  A    between atoms: _193  and  _196
REMARK   80  A    between atoms: _196  and  _197
REMARK   81  A    between atoms: _200  and  _202
REMARK   82  A    between atoms: _202  and  _203
REMARK   83  A    between atoms: _205  and  _207
REMARK   84  A    between atoms: _207  and  _208
REMARK   85  A    between atoms: _207  and  _210
REMARK   86  A    between atoms: _210  and  _211
REMARK   87  A    between atoms: _213  and  _215
REMARK   88  A    between atoms: _215  and  _216
REMARK   89  A    between atoms: _215  and  _218
REMARK   90  A    between atoms: _218  and  _219
REMARK   91  A    between atoms: _221  and  _223
REMARK   92  A    between atoms: _223  and  _224
REMARK   93  A    between atoms: _223  and  _226
REMARK   94  A    between atoms: _226  and  _227
REMARK   95  A    between atoms: _229  and  _231
REMARK   96  A    between atoms: _231  and  _232
REMARK   97  A    between atoms: _231  and  _234
REMARK   98  A    between atoms: _234  and  _235
REMARK   99  A    between atoms: _235  and  _236
REMARK  100  A    between atoms: _241  and  _243
REMARK  101  A    between atoms: _243  and  _244
REMARK  102  A    between atoms: _243  and  _246
REMARK  103  A    between atoms: _246  and  _247
REMARK  104  A    between atoms: _253  and  _255
REMARK  105  A    between atoms: _255  and  _256
REMARK  106  A    between atoms: _255  and  _258
REMARK  107  A    between atoms: _258  and  _259
REMARK  108  A    between atoms: _262  and  _264
REMARK  109  A    between atoms: _264  and  _265
REMARK  110  A    between atoms: _264  and  _267
REMARK  111  A    between atoms: _267  and  _268
REMARK  112  A    between atoms: _273  and  _275
REMARK  113  A    between atoms: _275  and  _276
REMARK  114  A    between atoms: _275  and  _278
REMARK  115  A    between atoms: _278  and  _279
REMARK  116  A    between atoms: _284  and  _286
REMARK  117  A    between atoms: _286  and  _287
REMARK  118  A    between atoms: _289  and  _291
REMARK  119  A    between atoms: _291  and  _292
REMARK  120  A    between atoms: _291  and  _294
REMARK  121  A    between atoms: _294  and  _295
REMARK  122  A    between atoms: _298  and  _300
REMARK  123  A    between atoms: _300  and  _301
REMARK  124  A    between atoms: _300  and  _303
REMARK  125  A    between atoms: _303  and  _304
REMARK  126  A    between atoms: _307  and  _309
REMARK  127  A    between atoms: _309  and  _310
REMARK  128  A    between atoms: _312  and  _314
REMARK  129  A    between atoms: _314  and  _315
REMARK  130  A    between atoms: _314  and  _317
REMARK  131  A    between atoms: _317  and  _318
REMARK  132  A    between atoms: _321  and  _323
REMARK  133  A    between atoms: _323  and  _324
REMARK  134  A    between atoms: _327  and  _329
REMARK  135  A    between atoms: _329  and  _330
REMARK  136  A    between atoms: _329  and  _332
REMARK  137  A    between atoms: _332  and  _333
REMARK  138  A    between atoms: _336  and  _338
REMARK  139  A    between atoms: _338  and  _339
REMARK  140  A    between atoms: _338  and  _341
REMARK  141  A    between atoms: _341  and  _342
REMARK  142  A    between atoms: _342  and  _343
REMARK  143  A    between atoms: _348  and  _350
REMARK  144  A    between atoms: _350  and  _351
REMARK  145  A    between atoms: _350  and  _353
REMARK  146  A    between atoms: _353  and  _354
REMARK  147  A    between atoms: _360  and  _362
REMARK  148  A    between atoms: _362  and  _363
REMARK  149  A    between atoms: _362  and  _365
REMARK  150  A    between atoms: _365  and  _366
REMARK  151  A    between atoms: _376  and  _378
REMARK  152  A    between atoms: _378  and  _379
REMARK  153  A    between atoms: _378  and  _381
REMARK  154  A    between atoms: _381  and  _382
REMARK  155  A    between atoms: _385  and  _387
REMARK  156  A    between atoms: _387  and  _388
REMARK  157  A    between atoms: _391  and  _393
REMARK  158  A    between atoms: _393  and  _394
REMARK  159  A    between atoms: _393  and  _396
REMARK  160  A    between atoms: _396  and  _397
REMARK  161  A    between atoms: _400  and  _402
REMARK  162  A    between atoms: _402  and  _403
REMARK  163  A    between atoms: _402  and  _405
REMARK  164  A    between atoms: _405  and  _406
REMARK  165  A    between atoms: _409  and  _411
REMARK  166  A    between atoms: _411  and  _412
REMARK  167  A    between atoms: _414  and  _416
REMARK  168  A    between atoms: _416  and  _417
REMARK  169  A    between atoms: _416  and  _419
REMARK  170  A    between atoms: _419  and  _420
REMARK  171  A    between atoms: _423  and  _425
REMARK  172  A    between atoms: _425  and  _426
REMARK  173  A    between atoms: _425  and  _428
REMARK  174  A    between atoms: _428  and  _429
REMARK  175  A    between atoms: _432  and  _434
REMARK  176  A    between atoms: _434  and  _435
REMARK  177  A    between atoms: _434  and  _437
REMARK  178  A    between atoms: _437  and  _438
REMARK  179  A    between atoms: _441  and  _443
REMARK  180  A    between atoms: _443  and  _444
REMARK  181  A    between atoms: _443  and  _446
REMARK  182  A    between atoms: _446  and  _447
REMARK  183  A    between atoms: _450  and  _452
REMARK  184  A    between atoms: _452  and  _453
REMARK  185  A    between atoms: _452  and  _455
REMARK  186  A    between atoms: _455  and  _456
REMARK  187  A    between atoms: _459  and  _461
REMARK  188  A    between atoms: _461  and  _462
REMARK  189  A    between atoms: _465  and  _467
REMARK  190  A    between atoms: _467  and  _468
REMARK  191  A    between atoms: _470  and  _472
REMARK  192  A    between atoms: _472  and  _473
REMARK  193  A    between atoms: _475  and  _477
REMARK  194  A    between atoms: _477  and  _478
REMARK  195  A    between atoms: _477  and  _480
REMARK  196  A    between atoms: _480  and  _481
REMARK  197  A    between atoms: _486  and  _487
REMARK  198  A    between atoms: _490  and  _491
REMARK  199  A    between atoms: _496  and  _498
REMARK  200  A    between atoms: _498  and  _499
REMARK  201  A    between atoms: _498  and  _501
REMARK  202  A    between atoms: _501  and  _502
REMARK  203  A    between atoms: _504  and  _506
REMARK  204  A    between atoms: _506  and  _507
REMARK  205  A    between atoms: _506  and  _509
REMARK  206  A    between atoms: _509  and  _510
REMARK  207  A    between atoms: _513  and  _515
REMARK  208  A    between atoms: _515  and  _516
REMARK  209  A    between atoms: _518  and  _520
REMARK  210  A    between atoms: _520  and  _521
REMARK  211  A    between atoms: _520  and  _523
REMARK  212  A    between atoms: _523  and  _524
REMARK  213  A    between atoms: _524  and  _525
REMARK  214  A    between atoms: _530  and  _532
REMARK  215  A    between atoms: _532  and  _533
REMARK  216  A    between atoms: _532  and  _535
REMARK  217  A    between atoms: _535  and  _536
REMARK  218  A    between atoms: _538  and  _540
REMARK  219  A    between atoms: _540  and  _541
REMARK  220  A    between atoms: _540  and  _543
REMARK  221  A    between atoms: _543  and  _544
REMARK  222  A    between atoms: _549  and  _551
REMARK  223  A    between atoms: _551  and  _552
REMARK  224  A    between atoms: _551  and  _554
REMARK  225  A    between atoms: _554  and  _555
REMARK  226  A    between atoms: _557  and  _559
REMARK  227  A    between atoms: _559  and  _560
REMARK  228  A    between atoms: _559  and  _562
REMARK  229  A    between atoms: _562  and  _563
REMARK  230  A    between atoms: _566  and  _568
REMARK  231  A    between atoms: _568  and  _569
REMARK  232  A    between atoms: _568  and  _571
REMARK  233  A    between atoms: _571  and  _572
REMARK  234  A    between atoms: _578  and  _580
REMARK  235  A    between atoms: _580  and  _581
REMARK  236  A    between atoms: _580  and  _583
REMARK  237  A    between atoms: _583  and  _584
REMARK  238  A    between atoms: _586  and  _588
REMARK  239  A    between atoms: _588  and  _589
REMARK  240  A    between atoms: _588  and  _591
REMARK  241  A    between atoms: _591  and  _592
REMARK  242  A    between atoms: _595  and  _597
REMARK  243  A    between atoms: _597  and  _598
REMARK  244  A    between atoms: _597  and  _600
REMARK  245  A    between atoms: _600  and  _601
REMARK  246  A    between atoms: _607  and  _609
REMARK  247  A    between atoms: _609  and  _610
REMARK  248  A    between atoms: _612  and  _614
REMARK  249  A    between atoms: _614  and  _615
REMARK  250  A    between atoms: _614  and  _617
REMARK  251  A    between atoms: _617  and  _618
REMARK                            x       y       z     vdW  Elec       q    Type
REMARK                         _______ _______ _______ _____ _____    ______ ____
ROOT
ATOM      1  O   HOH     1      21.594  10.953  12.503  0.00  0.00    +0.000 OA
ENDROOT
TORSDOF 0
REMARK  Name = ../refined-set-2016/1bxq/1bxq_pocket.pdb
REMARK  251 active torsions:
REMARK  status: ('A' for Active; 'I' for Inactive)
REMARK    1  A    between atoms: _1  and  _3
REMARK    2  A    between atoms: _3  and  _4
REMARK    3  A    between atoms: _3  and  _6
REMARK    4  A    between atoms: _6  and  _7
REMARK    5  A    between atoms: _10  and  _12
REMARK    6  A    between atoms: _12  and  _13
REMARK    7  A    between atoms: _16  and  _18
REMARK    8  A    between atoms: _18  and  _19
REMARK    9  A    between atoms: _18  and  _21
REMARK   10  A    between atoms: _21  and  _22
REMARK   11  A    between atoms: _27  and  _29
REMARK   12  A    between atoms: _29  and  _30
REMARK   13  A    between atoms: _29  and  _32
REMARK   14  A    between atoms: _32  and  _33
REMARK   15  A    between atoms: _36  and  _38
REMARK   16  A    between atoms: _38  and  _39
REMARK   17  A    between atoms: _38  and  _41
REMARK   18  A    between atoms: _41  and  _42
REMARK   19  A    between atoms: _42  and  _43
REMARK   20  A    between atoms: _46  and  _48
REMARK   21  A    between atoms: _48  and  _49
REMARK   22  A    between atoms: _48  and  _51
REMARK   23  A    between atoms: _51  and  _52
REMARK   24  A    between atoms: _52  and  _53
REMARK   25  A    between atoms: _56  and  _58
REMARK   26  A    between atoms: _58  and  _59
REMARK   27  A    between atoms: _58  and  _61
REMARK   28  A    between atoms: _61  and  _62
REMARK   29  A    between atoms: _67  and  _68
REMARK   30  A    between atoms: _70  and  _72
REMARK   31  A    between atoms: _72  and  _73
REMARK   32  A    between atoms: _72  and  _75
REMARK   33  A    between atoms: _75  and  _76
REMARK   34  A    between atoms: _81  and  _83
REMARK   35  A    between atoms: _83  and  _84
REMARK   36  A    between atoms: _83  and  _86
REMARK   37  A    between atoms: _86  and  _87
REMARK   38  A    between atoms: _93  and  _95
REMARK   39  A    between atoms: _95  and  _96
REMARK   40  A    between atoms: _95  and  _98
REMARK   41  A    between atoms: _98  and  _99
REMARK   42  A    between atoms: _102  and  _104
REMARK   43  A    between atoms: _104  and  _105
REMARK   44  A    between atoms: _104  and  _107
REMARK   45  A    between atoms: _107  and  _108
REMARK   46  A    between atoms: _111  and  _113
REMARK   47  A    between atoms: _113  and  _114
REMARK   48  A    between atoms: _116  and  _118
REMARK   49  A    between atoms: _118  and  _119
REMARK   50  A    between atoms: _118  and  _121
REMARK   51  A    between atoms: _121  and  _122
REMARK   52  A    between atoms: _124  and  _126
REMARK   53  A    between atoms: _126  and  _127
REMARK   54  A    between atoms: _130  and  _132
REMARK   55  A    between atoms: _132  and  _133
REMARK   56  A    between atoms: _132  and  _135
REMARK   57  A    between atoms: _135  and  _136
REMARK   58  A    between atoms: _139  and  _141
REMARK   59  A    between atoms: _141  and  _142
REMARK   60  A    between atoms: _141  and  _144
REMARK   61  A    between atoms: _144  and  _145
REMARK   62  A    between atoms: _155  and  _157
REMARK   63  A    between atoms: _157  and  _158
REMARK   64  A    between atoms: _157  and  _160
REMARK   65  A    between atoms: _160  and  _161
REMARK   66  A    between atoms: _164  and  _166
REMARK   67  A    between atoms: _166  and  _167
REMARK   68  A    between atoms: _166  and  _169
REMARK   69  A    between atoms: _169  and  _170
REMARK   70  A    between atoms: _172  and  _174
REMARK   71  A    between atoms: _174  and  _175
REMARK   72  A    between atoms: _174  and  _177
REMARK   73  A    between atoms: _177  and  _178
REMARK   74  A    between atoms: _183  and  _184
REMARK   75  A    between atoms: _186  and  _188
REMARK   76  A    between atoms: _188  and  _189
REMARK   77  A    between atoms: _191  and  _193
REMARK   78  A    between atoms: _193  and  _194
REMARK   79  A    between atoms: _193  and  _196
REMARK   80  A    between atoms: _196  and  _197
REMARK   81  A    between atoms: _200  and  _202
REMARK   82  A    between atoms: _202  and  _203
REMARK   83  A    between atoms: _205  and  _207
REMARK   84  A    between atoms: _207  and  _208
REMARK   85  A    between atoms: _207  and  _210
REMARK   86  A    between atoms: _210  and  _211
REMARK   87  A    between atoms: _213  and  _215
REMARK   88  A    between atoms: _215  and  _216
REMARK   89  A    between atoms: _215  and  _218
REMARK   90  A    between atoms: _218  and  _219
REMARK   91  A    between atoms: _221  and  _223
REMARK   92  A    between atoms: _223  and  _224
REMARK   93  A    between atoms: _223  and  _226
REMARK   94  A    between atoms: _226  and  _227
REMARK   95  A    between atoms: _229  and  _231
REMARK   96  A    between atoms: _231  and  _232
REMARK   97  A    between atoms: _231  and  _234
REMARK   98  A    between atoms: _234  and  _235
REMARK   99  A    between atoms: _235  and  _236
REMARK  100  A    between atoms: _241  and  _243
REMARK  101  A    between atoms: _243  and  _244
REMARK  102  A    between atoms: _243  and  _246
REMARK  103  A    between atoms: _246  and  _247
REMARK  104  A    between atoms: _253  and  _255
REMARK  105  A    between atoms: _255  and  _256
REMARK  106  A    between atoms: _255  and  _258
REMARK  107  A    between atoms: _258  and  _259
REMARK  108  A    between atoms: _262  and  _264
REMARK  109  A    between atoms: _264  and  _265
REMARK  110  A    between atoms: _264  and  _267
REMARK  111  A    between atoms: _267  and  _268
REMARK  112  A    between atoms: _273  and  _275
REMARK  113  A    between atoms: _275  and  _276
REMARK  114  A    between atoms: _275  and  _278
REMARK  115  A    between atoms: _278  and  _279
REMARK  116  A    between atoms: _284  and  _286
REMARK  117  A    between atoms: _286  and  _287
REMARK  118  A    between atoms: _289  and  _291
REMARK  119  A    between atoms: _291  and  _292
REMARK  120  A    between atoms: _291  and  _294
REMARK  121  A    between atoms: _294  and  _295
REMARK  122  A    between atoms: _298  and  _300
REMARK  123  A    between atoms: _300  and  _301
REMARK  124  A    between atoms: _300  and  _303
REMARK  125  A    between atoms: _303  and  _304
REMARK  126  A    between atoms: _307  and  _309
REMARK  127  A    between atoms: _309  and  _310
REMARK  128  A    between atoms: _312  and  _314
REMARK  129  A    between atoms: _314  and  _315
REMARK  130  A    between atoms: _314  and  _317
REMARK  131  A    between atoms: _317  and  _318
REMARK  132  A    between atoms: _321  and  _323
REMARK  133  A    between atoms: _323  and  _324
REMARK  134  A    between atoms: _327  and  _329
REMARK  135  A    between atoms: _329  and  _330
REMARK  136  A    between atoms: _329  and  _332
REMARK  137  A    between atoms: _332  and  _333
REMARK  138  A    between atoms: _336  and  _338
REMARK  139  A    between atoms: _338  and  _339
REMARK  140  A    between atoms: _338  and  _341
REMARK  141  A    between atoms: _341  and  _342
REMARK  142  A    between atoms: _342  and  _343
REMARK  143  A    between atoms: _348  and  _350
REMARK  144  A    between atoms: _350  and  _351
REMARK  145  A    between atoms: _350  and  _353
REMARK  146  A    between atoms: _353  and  _354
REMARK  147  A    between atoms: _360  and  _362
REMARK  148  A    between atoms: _362  and  _363
REMARK  149  A    between atoms: _362  and  _365
REMARK  150  A    between atoms: _365  and  _366
REMARK  151  A    between atoms: _376  and  _378
REMARK  152  A    between atoms: _378  and  _379
REMARK  153  A    between atoms: _378  and  _381
REMARK  154  A    between atoms: _381  and  _382
REMARK  155  A    between atoms: _385  and  _387
REMARK  156  A    between atoms: _387  and  _388
REMARK  157  A    between atoms: _391  and  _393
REMARK  158  A    between atoms: _393  and  _394
REMARK  159  A    between atoms: _393  and  _396
REMARK  160  A    between atoms: _396  and  _397
REMARK  161  A    between atoms: _400  and  _402
REMARK  162  A    between atoms: _402  and  _403
REMARK  163  A    between atoms: _402  and  _405
REMARK  164  A    between atoms: _405  and  _406
REMARK  165  A    between atoms: _409  and  _411
REMARK  166  A    between atoms: _411  and  _412
REMARK  167  A    between atoms: _414  and  _416
REMARK  168  A    between atoms: _416  and  _417
REMARK  169  A    between atoms: _416  and  _419
REMARK  170  A    between atoms: _419  and  _420
REMARK  171  A    between atoms: _423  and  _425
REMARK  172  A    between atoms: _425  and  _426
REMARK  173  A    between atoms: _425  and  _428
REMARK  174  A    between atoms: _428  and  _429
REMARK  175  A    between atoms: _432  and  _434
REMARK  176  A    between atoms: _434  and  _435
REMARK  177  A    between atoms: _434  and  _437
REMARK  178  A    between atoms: _437  and  _438
REMARK  179  A    between atoms: _441  and  _443
REMARK  180  A    between atoms: _443  and  _444
REMARK  181  A    between atoms: _443  and  _446
REMARK  182  A    between atoms: _446  and  _447
REMARK  183  A    between atoms: _450  and  _452
REMARK  184  A    between atoms: _452  and  _453
REMARK  185  A    between atoms: _452  and  _455
REMARK  186  A    between atoms: _455  and  _456
REMARK  187  A    between atoms: _459  and  _461
REMARK  188  A    between atoms: _461  and  _462
REMARK  189  A    between atoms: _465  and  _467
REMARK  190  A    between atoms: _467  and  _468
REMARK  191  A    between atoms: _470  and  _472
REMARK  192  A    between atoms: _472  and  _473
REMARK  193  A    between atoms: _475  and  _477
REMARK  194  A    between atoms: _477  and  _478
REMARK  195  A    between atoms: _477  and  _480
REMARK  196  A    between atoms: _480  and  _481
REMARK  197  A    between atoms: _486  and  _487
REMARK  198  A    between atoms: _490  and  _491
REMARK  199  A    between atoms: _496  and  _498
REMARK  200  A    between atoms: _498  and  _499
REMARK  201  A    between atoms: _498  and  _501
REMARK  202  A    between atoms: _501  and  _502
REMARK  203  A    between atoms: _504  and  _506
REMARK  204  A    between atoms: _506  and  _507
REMARK  205  A    between atoms: _506  and  _509
REMARK  206  A    between atoms: _509  and  _510
REMARK  207  A    between atoms: _513  and  _515
REMARK  208  A    between atoms: _515  and  _516
REMARK  209  A    between atoms: _518  and  _520
REMARK  210  A    between atoms: _520  and  _521
REMARK  211  A    between atoms: _520  and  _523
REMARK  212  A    between atoms: _523  and  _524
REMARK  213  A    between atoms: _524  and  _525
REMARK  214  A    between atoms: _530  and  _532
REMARK  215  A    between atoms: _532  and  _533
REMARK  216  A    between atoms: _532  and  _535
REMARK  217  A    between atoms: _535  and  _536
REMARK  218  A    between atoms: _538  and  _540
REMARK  219  A    between atoms: _540  and  _541
REMARK  220  A    between atoms: _540  and  _543
REMARK  221  A    between atoms: _543  and  _544
REMARK  222  A    between atoms: _549  and  _551
REMARK  223  A    between atoms: _551  and  _552
REMARK  224  A    between atoms: _551  and  _554
REMARK  225  A    between atoms: _554  and  _555
REMARK  226  A    between atoms: _557  and  _559
REMARK  227  A    between atoms: _559  and  _560
REMARK  228  A    between atoms: _559  and  _562
REMARK  229  A    between atoms: _562  and  _563
REMARK  230  A    between atoms: _566  and  _568
REMARK  231  A    between atoms: _568  and  _569
REMARK  232  A    between atoms: _568  and  _571
REMARK  233  A    between atoms: _571  and  _572
REMARK  234  A    between atoms: _578  and  _580
REMARK  235  A    between atoms: _580  and  _581
REMARK  236  A    between atoms: _580  and  _583
REMARK  237  A    between atoms: _583  and  _584
REMARK  238  A    between atoms: _586  and  _588
REMARK  239  A    between atoms: _588  and  _589
REMARK  240  A    between atoms: _588  and  _591
REMARK  241  A    between atoms: _591  and  _592
REMARK  242  A    between atoms: _595  and  _597
REMARK  243  A    between atoms: _597  and  _598
REMARK  244  A    between atoms: _597  and  _600
REMARK  245  A    between atoms: _600  and  _601
REMARK  246  A    between atoms: _607  and  _609
REMARK  247  A    between atoms: _609  and  _610
REMARK  248  A    between atoms: _612  and  _614
REMARK  249  A    between atoms: _614  and  _615
REMARK  250  A    between atoms: _614  and  _617
REMARK  251  A    between atoms: _617  and  _618
REMARK                            x       y       z     vdW  Elec       q    Type
REMARK                         _______ _______ _______ _____ _____    ______ ____
ROOT
ATOM      1  O   HOH     1      30.548  11.497  19.094  0.00  0.00    +0.000 OA
ENDROOT
TORSDOF 0
REMARK  Name = ../refined-set-2016/1bxq/1bxq_pocket.pdb
REMARK  251 active torsions:
REMARK  status: ('A' for Active; 'I' for Inactive)
REMARK    1  A    between atoms: _1  and  _3
REMARK    2  A    between atoms: _3  and  _4
REMARK    3  A    between atoms: _3  and  _6
REMARK    4  A    between atoms: _6  and  _7
REMARK    5  A    between atoms: _10  and  _12
REMARK    6  A    between atoms: _12  and  _13
REMARK    7  A    between atoms: _16  and  _18
REMARK    8  A    between atoms: _18  and  _19
REMARK    9  A    between atoms: _18  and  _21
REMARK   10  A    between atoms: _21  and  _22
REMARK   11  A    between atoms: _27  and  _29
REMARK   12  A    between atoms: _29  and  _30
REMARK   13  A    between atoms: _29  and  _32
REMARK   14  A    between atoms: _32  and  _33
REMARK   15  A    between atoms: _36  and  _38
REMARK   16  A    between atoms: _38  and  _39
REMARK   17  A    between atoms: _38  and  _41
REMARK   18  A    between atoms: _41  and  _42
REMARK   19  A    between atoms: _42  and  _43
REMARK   20  A    between atoms: _46  and  _48
REMARK   21  A    between atoms: _48  and  _49
REMARK   22  A    between atoms: _48  and  _51
REMARK   23  A    between atoms: _51  and  _52
REMARK   24  A    between atoms: _52  and  _53
REMARK   25  A    between atoms: _56  and  _58
REMARK   26  A    between atoms: _58  and  _59
REMARK   27  A    between atoms: _58  and  _61
REMARK   28  A    between atoms: _61  and  _62
REMARK   29  A    between atoms: _67  and  _68
REMARK   30  A    between atoms: _70  and  _72
REMARK   31  A    between atoms: _72  and  _73
REMARK   32  A    between atoms: _72  and  _75
REMARK   33  A    between atoms: _75  and  _76
REMARK   34  A    between atoms: _81  and  _83
REMARK   35  A    between atoms: _83  and  _84
REMARK   36  A    between atoms: _83  and  _86
REMARK   37  A    between atoms: _86  and  _87
REMARK   38  A    between atoms: _93  and  _95
REMARK   39  A    between atoms: _95  and  _96
REMARK   40  A    between atoms: _95  and  _98
REMARK   41  A    between atoms: _98  and  _99
REMARK   42  A    between atoms: _102  and  _104
REMARK   43  A    between atoms: _104  and  _105
REMARK   44  A    between atoms: _104  and  _107
REMARK   45  A    between atoms: _107  and  _108
REMARK   46  A    between atoms: _111  and  _113
REMARK   47  A    between atoms: _113  and  _114
REMARK   48  A    between atoms: _116  and  _118
REMARK   49  A    between atoms: _118  and  _119
REMARK   50  A    between atoms: _118  and  _121
REMARK   51  A    between atoms: _121  and  _122
REMARK   52  A    between atoms: _124  and  _126
REMARK   53  A    between atoms: _126  and  _127
REMARK   54  A    between atoms: _130  and  _132
REMARK   55  A    between atoms: _132  and  _133
REMARK   56  A    between atoms: _132  and  _135
REMARK   57  A    between atoms: _135  and  _136
REMARK   58  A    between atoms: _139  and  _141
REMARK   59  A    between atoms: _141  and  _142
REMARK   60  A    between atoms: _141  and  _144
REMARK   61  A    between atoms: _144  and  _145
REMARK   62  A    between atoms: _155  and  _157
REMARK   63  A    between atoms: _157  and  _158
REMARK   64  A    between atoms: _157  and  _160
REMARK   65  A    between atoms: _160  and  _161
REMARK   66  A    between atoms: _164  and  _166
REMARK   67  A    between atoms: _166  and  _167
REMARK   68  A    between atoms: _166  and  _169
REMARK   69  A    between atoms: _169  and  _170
REMARK   70  A    between atoms: _172  and  _174
REMARK   71  A    between atoms: _174  and  _175
REMARK   72  A    between atoms: _174  and  _177
REMARK   73  A    between atoms: _177  and  _178
REMARK   74  A    between atoms: _183  and  _184
REMARK   75  A    between atoms: _186  and  _188
REMARK   76  A    between atoms: _188  and  _189
REMARK   77  A    between atoms: _191  and  _193
REMARK   78  A    between atoms: _193  and  _194
REMARK   79  A    between atoms: _193  and  _196
REMARK   80  A    between atoms: _196  and  _197
REMARK   81  A    between atoms: _200  and  _202
REMARK   82  A    between atoms: _202  and  _203
REMARK   83  A    between atoms: _205  and  _207
REMARK   84  A    between atoms: _207  and  _208
REMARK   85  A    between atoms: _207  and  _210
REMARK   86  A    between atoms: _210  and  _211
REMARK   87  A    between atoms: _213  and  _215
REMARK   88  A    between atoms: _215  and  _216
REMARK   89  A    between atoms: _215  and  _218
REMARK   90  A    between atoms: _218  and  _219
REMARK   91  A    between atoms: _221  and  _223
REMARK   92  A    between atoms: _223  and  _224
REMARK   93  A    between atoms: _223  and  _226
REMARK   94  A    between atoms: _226  and  _227
REMARK   95  A    between atoms: _229  and  _231
REMARK   96  A    between atoms: _231  and  _232
REMARK   97  A    between atoms: _231  and  _234
REMARK   98  A    between atoms: _234  and  _235
REMARK   99  A    between atoms: _235  and  _236
REMARK  100  A    between atoms: _241  and  _243
REMARK  101  A    between atoms: _243  and  _244
REMARK  102  A    between atoms: _243  and  _246
REMARK  103  A    between atoms: _246  and  _247
REMARK  104  A    between atoms: _253  and  _255
REMARK  105  A    between atoms: _255  and  _256
REMARK  106  A    between atoms: _255  and  _258
REMARK  107  A    between atoms: _258  and  _259
REMARK  108  A    between atoms: _262  and  _264
REMARK  109  A    between atoms: _264  and  _265
REMARK  110  A    between atoms: _264  and  _267
REMARK  111  A    between atoms: _267  and  _268
REMARK  112  A    between atoms: _273  and  _275
REMARK  113  A    between atoms: _275  and  _276
REMARK  114  A    between atoms: _275  and  _278
REMARK  115  A    between atoms: _278  and  _279
REMARK  116  A    between atoms: _284  and  _286
REMARK  117  A    between atoms: _286  and  _287
REMARK  118  A    between atoms: _289  and  _291
REMARK  119  A    between atoms: _291  and  _292
REMARK  120  A    between atoms: _291  and  _294
REMARK  121  A    between atoms: _294  and  _295
REMARK  122  A    between atoms: _298  and  _300
REMARK  123  A    between atoms: _300  and  _301
REMARK  124  A    between atoms: _300  and  _303
REMARK  125  A    between atoms: _303  and  _304
REMARK  126  A    between atoms: _307  and  _309
REMARK  127  A    between atoms: _309  and  _310
REMARK  128  A    between atoms: _312  and  _314
REMARK  129  A    between atoms: _314  and  _315
REMARK  130  A    between atoms: _314  and  _317
REMARK  131  A    between atoms: _317  and  _318
REMARK  132  A    between atoms: _321  and  _323
REMARK  133  A    between atoms: _323  and  _324
REMARK  134  A    between atoms: _327  and  _329
REMARK  135  A    between atoms: _329  and  _330
REMARK  136  A    between atoms: _329  and  _332
REMARK  137  A    between atoms: _332  and  _333
REMARK  138  A    between atoms: _336  and  _338
REMARK  139  A    between atoms: _338  and  _339
REMARK  140  A    between atoms: _338  and  _341
REMARK  141  A    between atoms: _341  and  _342
REMARK  142  A    between atoms: _342  and  _343
REMARK  143  A    between atoms: _348  and  _350
REMARK  144  A    between atoms: _350  and  _351
REMARK  145  A    between atoms: _350  and  _353
REMARK  146  A    between atoms: _353  and  _354
REMARK  147  A    between atoms: _360  and  _362
REMARK  148  A    between atoms: _362  and  _363
REMARK  149  A    between atoms: _362  and  _365
REMARK  150  A    between atoms: _365  and  _366
REMARK  151  A    between atoms: _376  and  _378
REMARK  152  A    between atoms: _378  and  _379
REMARK  153  A    between atoms: _378  and  _381
REMARK  154  A    between atoms: _381  and  _382
REMARK  155  A    between atoms: _385  and  _387
REMARK  156  A    between atoms: _387  and  _388
REMARK  157  A    between atoms: _391  and  _393
REMARK  158  A    between atoms: _393  and  _394
REMARK  159  A    between atoms: _393  and  _396
REMARK  160  A    between atoms: _396  and  _397
REMARK  161  A    between atoms: _400  and  _402
REMARK  162  A    between atoms: _402  and  _403
REMARK  163  A    between atoms: _402  and  _405
REMARK  164  A    between atoms: _405  and  _406
REMARK  165  A    between atoms: _409  and  _411
REMARK  166  A    between atoms: _411  and  _412
REMARK  167  A    between atoms: _414  and  _416
REMARK  168  A    between atoms: _416  and  _417
REMARK  169  A    between atoms: _416  and  _419
REMARK  170  A    between atoms: _419  and  _420
REMARK  171  A    between atoms: _423  and  _425
REMARK  172  A    between atoms: _425  and  _426
REMARK  173  A    between atoms: _425  and  _428
REMARK  174  A    between atoms: _428  and  _429
REMARK  175  A    between atoms: _432  and  _434
REMARK  176  A    between atoms: _434  and  _435
REMARK  177  A    between atoms: _434  and  _437
REMARK  178  A    between atoms: _437  and  _438
REMARK  179  A    between atoms: _441  and  _443
REMARK  180  A    between atoms: _443  and  _444
REMARK  181  A    between atoms: _443  and  _446
REMARK  182  A    between atoms: _446  and  _447
REMARK  183  A    between atoms: _450  and  _452
REMARK  184  A    between atoms: _452  and  _453
REMARK  185  A    between atoms: _452  and  _455
REMARK  186  A    between atoms: _455  and  _456
REMARK  187  A    between atoms: _459  and  _461
REMARK  188  A    between atoms: _461  and  _462
REMARK  189  A    between atoms: _465  and  _467
REMARK  190  A    between atoms: _467  and  _468
REMARK  191  A    between atoms: _470  and  _472
REMARK  192  A    between atoms: _472  and  _473
REMARK  193  A    between atoms: _475  and  _477
REMARK  194  A    between atoms: _477  and  _478
REMARK  195  A    between atoms: _477  and  _480
REMARK  196  A    between atoms: _480  and  _481
REMARK  197  A    between atoms: _486  and  _487
REMARK  198  A    between atoms: _490  and  _491
REMARK  199  A    between atoms: _496  and  _498
REMARK  200  A    between atoms: _498  and  _499
REMARK  201  A    between atoms: _498  and  _501
REMARK  202  A    between atoms: _501  and  _502
REMARK  203  A    between atoms: _504  and  _506
REMARK  204  A    between atoms: _506  and  _507
REMARK  205  A    between atoms: _506  and  _509
REMARK  206  A    between atoms: _509  and  _510
REMARK  207  A    between atoms: _513  and  _515
REMARK  208  A    between atoms: _515  and  _516
REMARK  209  A    between atoms: _518  and  _520
REMARK  210  A    between atoms: _520  and  _521
REMARK  211  A    between atoms: _520  and  _523
REMARK  212  A    between atoms: _523  and  _524
REMARK  213  A    between atoms: _524  and  _525
REMARK  214  A    between atoms: _530  and  _532
REMARK  215  A    between atoms: _532  and  _533
REMARK  216  A    between atoms: _532  and  _535
REMARK  217  A    between atoms: _535  and  _536
REMARK  218  A    between atoms: _538  and  _540
REMARK  219  A    between atoms: _540  and  _541
REMARK  220  A    between atoms: _540  and  _543
REMARK  221  A    between atoms: _543  and  _544
REMARK  222  A    between atoms: _549  and  _551
REMARK  223  A    between atoms: _551  and  _552
REMARK  224  A    between atoms: _551  and  _554
REMARK  225  A    between atoms: _554  and  _555
REMARK  226  A    between atoms: _557  and  _559
REMARK  227  A    between atoms: _559  and  _560
REMARK  228  A    between atoms: _559  and  _562
REMARK  229  A    between atoms: _562  and  _563
REMARK  230  A    between atoms: _566  and  _568
REMARK  231  A    between atoms: _568  and  _569
REMARK  232  A    between atoms: _568  and  _571
REMARK  233  A    between atoms: _571  and  _572
REMARK  234  A    between atoms: _578  and  _580
REMARK  235  A    between atoms: _580  and  _581
REMARK  236  A    between atoms: _580  and  _583
REMARK  237  A    between atoms: _583  and  _584
REMARK  238  A    between atoms: _586  and  _588
REMARK  239  A    between atoms: _588  and  _589
REMARK  240  A    between atoms: _588  and  _591
REMARK  241  A    between atoms: _591  and  _592
REMARK  242  A    between atoms: _595  and  _597
REMARK  243  A    between atoms: _597  and  _598
REMARK  244  A    between atoms: _597  and  _600
REMARK  245  A    between atoms: _600  and  _601
REMARK  246  A    between atoms: _607  and  _609
REMARK  247  A    between atoms: _609  and  _610
REMARK  248  A    between atoms: _612  and  _614
REMARK  249  A    between atoms: _614  and  _615
REMARK  250  A    between atoms: _614  and  _617
REMARK  251  A    between atoms: _617  and  _618
REMARK                            x       y       z     vdW  Elec       q    Type
REMARK                         _______ _______ _______ _____ _____    ______ ____
ROOT
ATOM      1  O   HOH     1      23.070  11.136  28.825  0.00  0.00    +0.000 OA
ENDROOT
TORSDOF 0
REMARK  Name = ../refined-set-2016/1bxq/1bxq_pocket.pdb
REMARK  251 active torsions:
REMARK  status: ('A' for Active; 'I' for Inactive)
REMARK    1  A    between atoms: _1  and  _3
REMARK    2  A    between atoms: _3  and  _4
REMARK    3  A    between atoms: _3  and  _6
REMARK    4  A    between atoms: _6  and  _7
REMARK    5  A    between atoms: _10  and  _12
REMARK    6  A    between atoms: _12  and  _13
REMARK    7  A    between atoms: _16  and  _18
REMARK    8  A    between atoms: _18  and  _19
REMARK    9  A    between atoms: _18  and  _21
REMARK   10  A    between atoms: _21  and  _22
REMARK   11  A    between atoms: _27  and  _29
REMARK   12  A    between atoms: _29  and  _30
REMARK   13  A    between atoms: _29  and  _32
REMARK   14  A    between atoms: _32  and  _33
REMARK   15  A    between atoms: _36  and  _38
REMARK   16  A    between atoms: _38  and  _39
REMARK   17  A    between atoms: _38  and  _41
REMARK   18  A    between atoms: _41  and  _42
REMARK   19  A    between atoms: _42  and  _43
REMARK   20  A    between atoms: _46  and  _48
REMARK   21  A    between atoms: _48  and  _49
REMARK   22  A    between atoms: _48  and  _51
REMARK   23  A    between atoms: _51  and  _52
REMARK   24  A    between atoms: _52  and  _53
REMARK   25  A    between atoms: _56  and  _58
REMARK   26  A    between atoms: _58  and  _59
REMARK   27  A    between atoms: _58  and  _61
REMARK   28  A    between atoms: _61  and  _62
REMARK   29  A    between atoms: _67  and  _68
REMARK   30  A    between atoms: _70  and  _72
REMARK   31  A    between atoms: _72  and  _73
REMARK   32  A    between atoms: _72  and  _75
REMARK   33  A    between atoms: _75  and  _76
REMARK   34  A    between atoms: _81  and  _83
REMARK   35  A    between atoms: _83  and  _84
REMARK   36  A    between atoms: _83  and  _86
REMARK   37  A    between atoms: _86  and  _87
REMARK   38  A    between atoms: _93  and  _95
REMARK   39  A    between atoms: _95  and  _96
REMARK   40  A    between atoms: _95  and  _98
REMARK   41  A    between atoms: _98  and  _99
REMARK   42  A    between atoms: _102  and  _104
REMARK   43  A    between atoms: _104  and  _105
REMARK   44  A    between atoms: _104  and  _107
REMARK   45  A    between atoms: _107  and  _108
REMARK   46  A    between atoms: _111  and  _113
REMARK   47  A    between atoms: _113  and  _114
REMARK   48  A    between atoms: _116  and  _118
REMARK   49  A    between atoms: _118  and  _119
REMARK   50  A    between atoms: _118  and  _121
REMARK   51  A    between atoms: _121  and  _122
REMARK   52  A    between atoms: _124  and  _126
REMARK   53  A    between atoms: _126  and  _127
REMARK   54  A    between atoms: _130  and  _132
REMARK   55  A    between atoms: _132  and  _133
REMARK   56  A    between atoms: _132  and  _135
REMARK   57  A    between atoms: _135  and  _136
REMARK   58  A    between atoms: _139  and  _141
REMARK   59  A    between atoms: _141  and  _142
REMARK   60  A    between atoms: _141  and  _144
REMARK   61  A    between atoms: _144  and  _145
REMARK   62  A    between atoms: _155  and  _157
REMARK   63  A    between atoms: _157  and  _158
REMARK   64  A    between atoms: _157  and  _160
REMARK   65  A    between atoms: _160  and  _161
REMARK   66  A    between atoms: _164  and  _166
REMARK   67  A    between atoms: _166  and  _167
REMARK   68  A    between atoms: _166  and  _169
REMARK   69  A    between atoms: _169  and  _170
REMARK   70  A    between atoms: _172  and  _174
REMARK   71  A    between atoms: _174  and  _175
REMARK   72  A    between atoms: _174  and  _177
REMARK   73  A    between atoms: _177  and  _178
REMARK   74  A    between atoms: _183  and  _184
REMARK   75  A    between atoms: _186  and  _188
REMARK   76  A    between atoms: _188  and  _189
REMARK   77  A    between atoms: _191  and  _193
REMARK   78  A    between atoms: _193  and  _194
REMARK   79  A    between atoms: _193  and  _196
REMARK   80  A    between atoms: _196  and  _197
REMARK   81  A    between atoms: _200  and  _202
REMARK   82  A    between atoms: _202  and  _203
REMARK   83  A    between atoms: _205  and  _207
REMARK   84  A    between atoms: _207  and  _208
REMARK   85  A    between atoms: _207  and  _210
REMARK   86  A    between atoms: _210  and  _211
REMARK   87  A    between atoms: _213  and  _215
REMARK   88  A    between atoms: _215  and  _216
REMARK   89  A    between atoms: _215  and  _218
REMARK   90  A    between atoms: _218  and  _219
REMARK   91  A    between atoms: _221  and  _223
REMARK   92  A    between atoms: _223  and  _224
REMARK   93  A    between atoms: _223  and  _226
REMARK   94  A    between atoms: _226  and  _227
REMARK   95  A    between atoms: _229  and  _231
REMARK   96  A    between atoms: _231  and  _232
REMARK   97  A    between atoms: _231  and  _234
REMARK   98  A    between atoms: _234  and  _235
REMARK   99  A    between atoms: _235  and  _236
REMARK  100  A    between atoms: _241  and  _243
REMARK  101  A    between atoms: _243  and  _244
REMARK  102  A    between atoms: _243  and  _246
REMARK  103  A    between atoms: _246  and  _247
REMARK  104  A    between atoms: _253  and  _255
REMARK  105  A    between atoms: _255  and  _256
REMARK  106  A    between atoms: _255  and  _258
REMARK  107  A    between atoms: _258  and  _259
REMARK  108  A    between atoms: _262  and  _264
REMARK  109  A    between atoms: _264  and  _265
REMARK  110  A    between atoms: _264  and  _267
REMARK  111  A    between atoms: _267  and  _268
REMARK  112  A    between atoms: _273  and  _275
REMARK  113  A    between atoms: _275  and  _276
REMARK  114  A    between atoms: _275  and  _278
REMARK  115  A    between atoms: _278  and  _279
REMARK  116  A    between atoms: _284  and  _286
REMARK  117  A    between atoms: _286  and  _287
REMARK  118  A    between atoms: _289  and  _291
REMARK  119  A    between atoms: _291  and  _292
REMARK  120  A    between atoms: _291  and  _294
REMARK  121  A    between atoms: _294  and  _295
REMARK  122  A    between atoms: _298  and  _300
REMARK  123  A    between atoms: _300  and  _301
REMARK  124  A    between atoms: _300  and  _303
REMARK  125  A    between atoms: _303  and  _304
REMARK  126  A    between atoms: _307  and  _309
REMARK  127  A    between atoms: _309  and  _310
REMARK  128  A    between atoms: _312  and  _314
REMARK  129  A    between atoms: _314  and  _315
REMARK  130  A    between atoms: _314  and  _317
REMARK  131  A    between atoms: _317  and  _318
REMARK  132  A    between atoms: _321  and  _323
REMARK  133  A    between atoms: _323  and  _324
REMARK  134  A    between atoms: _327  and  _329
REMARK  135  A    between atoms: _329  and  _330
REMARK  136  A    between atoms: _329  and  _332
REMARK  137  A    between atoms: _332  and  _333
REMARK  138  A    between atoms: _336  and  _338
REMARK  139  A    between atoms: _338  and  _339
REMARK  140  A    between atoms: _338  and  _341
REMARK  141  A    between atoms: _341  and  _342
REMARK  142  A    between atoms: _342  and  _343
REMARK  143  A    between atoms: _348  and  _350
REMARK  144  A    between atoms: _350  and  _351
REMARK  145  A    between atoms: _350  and  _353
REMARK  146  A    between atoms: _353  and  _354
REMARK  147  A    between atoms: _360  and  _362
REMARK  148  A    between atoms: _362  and  _363
REMARK  149  A    between atoms: _362  and  _365
REMARK  150  A    between atoms: _365  and  _366
REMARK  151  A    between atoms: _376  and  _378
REMARK  152  A    between atoms: _378  and  _379
REMARK  153  A    between atoms: _378  and  _381
REMARK  154  A    between atoms: _381  and  _382
REMARK  155  A    between atoms: _385  and  _387
REMARK  156  A    between atoms: _387  and  _388
REMARK  157  A    between atoms: _391  and  _393
REMARK  158  A    between atoms: _393  and  _394
REMARK  159  A    between atoms: _393  and  _396
REMARK  160  A    between atoms: _396  and  _397
REMARK  161  A    between atoms: _400  and  _402
REMARK  162  A    between atoms: _402  and  _403
REMARK  163  A    between atoms: _402  and  _405
REMARK  164  A    between atoms: _405  and  _406
REMARK  165  A    between atoms: _409  and  _411
REMARK  166  A    between atoms: _411  and  _412
REMARK  167  A    between atoms: _414  and  _416
REMARK  168  A    between atoms: _416  and  _417
REMARK  169  A    between atoms: _416  and  _419
REMARK  170  A    between atoms: _419  and  _420
REMARK  171  A    between atoms: _423  and  _425
REMARK  172  A    between atoms: _425  and  _426
REMARK  173  A    between atoms: _425  and  _428
REMARK  174  A    between atoms: _428  and  _429
REMARK  175  A    between atoms: _432  and  _434
REMARK  176  A    between atoms: _434  and  _435
REMARK  177  A    between atoms: _434  and  _437
REMARK  178  A    between atoms: _437  and  _438
REMARK  179  A    between atoms: _441  and  _443
REMARK  180  A    between atoms: _443  and  _444
REMARK  181  A    between atoms: _443  and  _446
REMARK  182  A    between atoms: _446  and  _447
REMARK  183  A    between atoms: _450  and  _452
REMARK  184  A    between atoms: _452  and  _453
REMARK  185  A    between atoms: _452  and  _455
REMARK  186  A    between atoms: _455  and  _456
REMARK  187  A    between atoms: _459  and  _461
REMARK  188  A    between atoms: _461  and  _462
REMARK  189  A    between atoms: _465  and  _467
REMARK  190  A    between atoms: _467  and  _468
REMARK  191  A    between atoms: _470  and  _472
REMARK  192  A    between atoms: _472  and  _473
REMARK  193  A    between atoms: _475  and  _477
REMARK  194  A    between atoms: _477  and  _478
REMARK  195  A    between atoms: _477  and  _480
REMARK  196  A    between atoms: _480  and  _481
REMARK  197  A    between atoms: _486  and  _487
REMARK  198  A    between atoms: _490  and  _491
REMARK  199  A    between atoms: _496  and  _498
REMARK  200  A    between atoms: _498  and  _499
REMARK  201  A    between atoms: _498  and  _501
REMARK  202  A    between atoms: _501  and  _502
REMARK  203  A    between atoms: _504  and  _506
REMARK  204  A    between atoms: _506  and  _507
REMARK  205  A    between atoms: _506  and  _509
REMARK  206  A    between atoms: _509  and  _510
REMARK  207  A    between atoms: _513  and  _515
REMARK  208  A    between atoms: _515  and  _516
REMARK  209  A    between atoms: _518  and  _520
REMARK  210  A    between atoms: _520  and  _521
REMARK  211  A    between atoms: _520  and  _523
REMARK  212  A    between atoms: _523  and  _524
REMARK  213  A    between atoms: _524  and  _525
REMARK  214  A    between atoms: _530  and  _532
REMARK  215  A    between atoms: _532  and  _533
REMARK  216  A    between atoms: _532  and  _535
REMARK  217  A    between atoms: _535  and  _536
REMARK  218  A    between atoms: _538  and  _540
REMARK  219  A    between atoms: _540  and  _541
REMARK  220  A    between atoms: _540  and  _543
REMARK  221  A    between atoms: _543  and  _544
REMARK  222  A    between atoms: _549  and  _551
REMARK  223  A    between atoms: _551  and  _552
REMARK  224  A    between atoms: _551  and  _554
REMARK  225  A    between atoms: _554  and  _555
REMARK  226  A    between atoms: _557  and  _559
REMARK  227  A    between atoms: _559  and  _560
REMARK  228  A    between atoms: _559  and  _562
REMARK  229  A    between atoms: _562  and  _563
REMARK  230  A    between atoms: _566  and  _568
REMARK  231  A    between atoms: _568  and  _569
REMARK  232  A    between atoms: _568  and  _571
REMARK  233  A    between atoms: _571  and  _572
REMARK  234  A    between atoms: _578  and  _580
REMARK  235  A    between atoms: _580  and  _581
REMARK  236  A    between atoms: _580  and  _583
REMARK  237  A    between atoms: _583  and  _584
REMARK  238  A    between atoms: _586  and  _588
REMARK  239  A    between atoms: _588  and  _589
REMARK  240  A    between atoms: _588  and  _591
REMARK  241  A    between atoms: _591  and  _592
REMARK  242  A    between atoms: _595  and  _597
REMARK  243  A    between atoms: _597  and  _598
REMARK  244  A    between atoms: _597  and  _600
REMARK  245  A    between atoms: _600  and  _601
REMARK  246  A    between atoms: _607  and  _609
REMARK  247  A    between atoms: _609  and  _610
REMARK  248  A    between atoms: _612  and  _614
REMARK  249  A    between atoms: _614  and  _615
REMARK  250  A    between atoms: _614  and  _617
REMARK  251  A    between atoms: _617  and  _618
REMARK                            x       y       z     vdW  Elec       q    Type
REMARK                         _______ _______ _______ _____ _____    ______ ____
ROOT
ATOM      1  O   HOH     1      14.851   8.979  27.263  0.00  0.00    +0.000 OA
ENDROOT
TORSDOF 0
REMARK  Name = ../refined-set-2016/1bxq/1bxq_pocket.pdb
REMARK  251 active torsions:
REMARK  status: ('A' for Active; 'I' for Inactive)
REMARK    1  A    between atoms: _1  and  _3
REMARK    2  A    between atoms: _3  and  _4
REMARK    3  A    between atoms: _3  and  _6
REMARK    4  A    between atoms: _6  and  _7
REMARK    5  A    between atoms: _10  and  _12
REMARK    6  A    between atoms: _12  and  _13
REMARK    7  A    between atoms: _16  and  _18
REMARK    8  A    between atoms: _18  and  _19
REMARK    9  A    between atoms: _18  and  _21
REMARK   10  A    between atoms: _21  and  _22
REMARK   11  A    between atoms: _27  and  _29
REMARK   12  A    between atoms: _29  and  _30
REMARK   13  A    between atoms: _29  and  _32
REMARK   14  A    between atoms: _32  and  _33
REMARK   15  A    between atoms: _36  and  _38
REMARK   16  A    between atoms: _38  and  _39
REMARK   17  A    between atoms: _38  and  _41
REMARK   18  A    between atoms: _41  and  _42
REMARK   19  A    between atoms: _42  and  _43
REMARK   20  A    between atoms: _46  and  _48
REMARK   21  A    between atoms: _48  and  _49
REMARK   22  A    between atoms: _48  and  _51
REMARK   23  A    between atoms: _51  and  _52
REMARK   24  A    between atoms: _52  and  _53
REMARK   25  A    between atoms: _56  and  _58
REMARK   26  A    between atoms: _58  and  _59
REMARK   27  A    between atoms: _58  and  _61
REMARK   28  A    between atoms: _61  and  _62
REMARK   29  A    between atoms: _67  and  _68
REMARK   30  A    between atoms: _70  and  _72
REMARK   31  A    between atoms: _72  and  _73
REMARK   32  A    between atoms: _72  and  _75
REMARK   33  A    between atoms: _75  and  _76
REMARK   34  A    between atoms: _81  and  _83
REMARK   35  A    between atoms: _83  and  _84
REMARK   36  A    between atoms: _83  and  _86
REMARK   37  A    between atoms: _86  and  _87
REMARK   38  A    between atoms: _93  and  _95
REMARK   39  A    between atoms: _95  and  _96
REMARK   40  A    between atoms: _95  and  _98
REMARK   41  A    between atoms: _98  and  _99
REMARK   42  A    between atoms: _102  and  _104
REMARK   43  A    between atoms: _104  and  _105
REMARK   44  A    between atoms: _104  and  _107
REMARK   45  A    between atoms: _107  and  _108
REMARK   46  A    between atoms: _111  and  _113
REMARK   47  A    between atoms: _113  and  _114
REMARK   48  A    between atoms: _116  and  _118
REMARK   49  A    between atoms: _118  and  _119
REMARK   50  A    between atoms: _118  and  _121
REMARK   51  A    between atoms: _121  and  _122
REMARK   52  A    between atoms: _124  and  _126
REMARK   53  A    between atoms: _126  and  _127
REMARK   54  A    between atoms: _130  and  _132
REMARK   55  A    between atoms: _132  and  _133
REMARK   56  A    between atoms: _132  and  _135
REMARK   57  A    between atoms: _135  and  _136
REMARK   58  A    between atoms: _139  and  _141
REMARK   59  A    between atoms: _141  and  _142
REMARK   60  A    between atoms: _141  and  _144
REMARK   61  A    between atoms: _144  and  _145
REMARK   62  A    between atoms: _155  and  _157
REMARK   63  A    between atoms: _157  and  _158
REMARK   64  A    between atoms: _157  and  _160
REMARK   65  A    between atoms: _160  and  _161
REMARK   66  A    between atoms: _164  and  _166
REMARK   67  A    between atoms: _166  and  _167
REMARK   68  A    between atoms: _166  and  _169
REMARK   69  A    between atoms: _169  and  _170
REMARK   70  A    between atoms: _172  and  _174
REMARK   71  A    between atoms: _174  and  _175
REMARK   72  A    between atoms: _174  and  _177
REMARK   73  A    between atoms: _177  and  _178
REMARK   74  A    between atoms: _183  and  _184
REMARK   75  A    between atoms: _186  and  _188
REMARK   76  A    between atoms: _188  and  _189
REMARK   77  A    between atoms: _191  and  _193
REMARK   78  A    between atoms: _193  and  _194
REMARK   79  A    between atoms: _193  and  _196
REMARK   80  A    between atoms: _196  and  _197
REMARK   81  A    between atoms: _200  and  _202
REMARK   82  A    between atoms: _202  and  _203
REMARK   83  A    between atoms: _205  and  _207
REMARK   84  A    between atoms: _207  and  _208
REMARK   85  A    between atoms: _207  and  _210
REMARK   86  A    between atoms: _210  and  _211
REMARK   87  A    between atoms: _213  and  _215
REMARK   88  A    between atoms: _215  and  _216
REMARK   89  A    between atoms: _215  and  _218
REMARK   90  A    between atoms: _218  and  _219
REMARK   91  A    between atoms: _221  and  _223
REMARK   92  A    between atoms: _223  and  _224
REMARK   93  A    between atoms: _223  and  _226
REMARK   94  A    between atoms: _226  and  _227
REMARK   95  A    between atoms: _229  and  _231
REMARK   96  A    between atoms: _231  and  _232
REMARK   97  A    between atoms: _231  and  _234
REMARK   98  A    between atoms: _234  and  _235
REMARK   99  A    between atoms: _235  and  _236
REMARK  100  A    between atoms: _241  and  _243
REMARK  101  A    between atoms: _243  and  _244
REMARK  102  A    between atoms: _243  and  _246
REMARK  103  A    between atoms: _246  and  _247
REMARK  104  A    between atoms: _253  and  _255
REMARK  105  A    between atoms: _255  and  _256
REMARK  106  A    between atoms: _255  and  _258
REMARK  107  A    between atoms: _258  and  _259
REMARK  108  A    between atoms: _262  and  _264
REMARK  109  A    between atoms: _264  and  _265
REMARK  110  A    between atoms: _264  and  _267
REMARK  111  A    between atoms: _267  and  _268
REMARK  112  A    between atoms: _273  and  _275
REMARK  113  A    between atoms: _275  and  _276
REMARK  114  A    between atoms: _275  and  _278
REMARK  115  A    between atoms: _278  and  _279
REMARK  116  A    between atoms: _284  and  _286
REMARK  117  A    between atoms: _286  and  _287
REMARK  118  A    between atoms: _289  and  _291
REMARK  119  A    between atoms: _291  and  _292
REMARK  120  A    between atoms: _291  and  _294
REMARK  121  A    between atoms: _294  and  _295
REMARK  122  A    between atoms: _298  and  _300
REMARK  123  A    between atoms: _300  and  _301
REMARK  124  A    between atoms: _300  and  _303
REMARK  125  A    between atoms: _303  and  _304
REMARK  126  A    between atoms: _307  and  _309
REMARK  127  A    between atoms: _309  and  _310
REMARK  128  A    between atoms: _312  and  _314
REMARK  129  A    between atoms: _314  and  _315
REMARK  130  A    between atoms: _314  and  _317
REMARK  131  A    between atoms: _317  and  _318
REMARK  132  A    between atoms: _321  and  _323
REMARK  133  A    between atoms: _323  and  _324
REMARK  134  A    between atoms: _327  and  _329
REMARK  135  A    between atoms: _329  and  _330
REMARK  136  A    between atoms: _329  and  _332
REMARK  137  A    between atoms: _332  and  _333
REMARK  138  A    between atoms: _336  and  _338
REMARK  139  A    between atoms: _338  and  _339
REMARK  140  A    between atoms: _338  and  _341
REMARK  141  A    between atoms: _341  and  _342
REMARK  142  A    between atoms: _342  and  _343
REMARK  143  A    between atoms: _348  and  _350
REMARK  144  A    between atoms: _350  and  _351
REMARK  145  A    between atoms: _350  and  _353
REMARK  146  A    between atoms: _353  and  _354
REMARK  147  A    between atoms: _360  and  _362
REMARK  148  A    between atoms: _362  and  _363
REMARK  149  A    between atoms: _362  and  _365
REMARK  150  A    between atoms: _365  and  _366
REMARK  151  A    between atoms: _376  and  _378
REMARK  152  A    between atoms: _378  and  _379
REMARK  153  A    between atoms: _378  and  _381
REMARK  154  A    between atoms: _381  and  _382
REMARK  155  A    between atoms: _385  and  _387
REMARK  156  A    between atoms: _387  and  _388
REMARK  157  A    between atoms: _391  and  _393
REMARK  158  A    between atoms: _393  and  _394
REMARK  159  A    between atoms: _393  and  _396
REMARK  160  A    between atoms: _396  and  _397
REMARK  161  A    between atoms: _400  and  _402
REMARK  162  A    between atoms: _402  and  _403
REMARK  163  A    between atoms: _402  and  _405
REMARK  164  A    between atoms: _405  and  _406
REMARK  165  A    between atoms: _409  and  _411
REMARK  166  A    between atoms: _411  and  _412
REMARK  167  A    between atoms: _414  and  _416
REMARK  168  A    between atoms: _416  and  _417
REMARK  169  A    between atoms: _416  and  _419
REMARK  170  A    between atoms: _419  and  _420
REMARK  171  A    between atoms: _423  and  _425
REMARK  172  A    between atoms: _425  and  _426
REMARK  173  A    between atoms: _425  and  _428
REMARK  174  A    between atoms: _428  and  _429
REMARK  175  A    between atoms: _432  and  _434
REMARK  176  A    between atoms: _434  and  _435
REMARK  177  A    between atoms: _434  and  _437
REMARK  178  A    between atoms: _437  and  _438
REMARK  179  A    between atoms: _441  and  _443
REMARK  180  A    between atoms: _443  and  _444
REMARK  181  A    between atoms: _443  and  _446
REMARK  182  A    between atoms: _446  and  _447
REMARK  183  A    between atoms: _450  and  _452
REMARK  184  A    between atoms: _452  and  _453
REMARK  185  A    between atoms: _452  and  _455
REMARK  186  A    between atoms: _455  and  _456
REMARK  187  A    between atoms: _459  and  _461
REMARK  188  A    between atoms: _461  and  _462
REMARK  189  A    between atoms: _465  and  _467
REMARK  190  A    between atoms: _467  and  _468
REMARK  191  A    between atoms: _470  and  _472
REMARK  192  A    between atoms: _472  and  _473
REMARK  193  A    between atoms: _475  and  _477
REMARK  194  A    between atoms: _477  and  _478
REMARK  195  A    between atoms: _477  and  _480
REMARK  196  A    between atoms: _480  and  _481
REMARK  197  A    between atoms: _486  and  _487
REMARK  198  A    between atoms: _490  and  _491
REMARK  199  A    between atoms: _496  and  _498
REMARK  200  A    between atoms: _498  and  _499
REMARK  201  A    between atoms: _498  and  _501
REMARK  202  A    between atoms: _501  and  _502
REMARK  203  A    between atoms: _504  and  _506
REMARK  204  A    between atoms: _506  and  _507
REMARK  205  A    between atoms: _506  and  _509
REMARK  206  A    between atoms: _509  and  _510
REMARK  207  A    between atoms: _513  and  _515
REMARK  208  A    between atoms: _515  and  _516
REMARK  209  A    between atoms: _518  and  _520
REMARK  210  A    between atoms: _520  and  _521
REMARK  211  A    between atoms: _520  and  _523
REMARK  212  A    between atoms: _523  and  _524
REMARK  213  A    between atoms: _524  and  _525
REMARK  214  A    between atoms: _530  and  _532
REMARK  215  A    between atoms: _532  and  _533
REMARK  216  A    between atoms: _532  and  _535
REMARK  217  A    between atoms: _535  and  _536
REMARK  218  A    between atoms: _538  and  _540
REMARK  219  A    between atoms: _540  and  _541
REMARK  220  A    between atoms: _540  and  _543
REMARK  221  A    between atoms: _543  and  _544
REMARK  222  A    between atoms: _549  and  _551
REMARK  223  A    between atoms: _551  and  _552
REMARK  224  A    between atoms: _551  and  _554
REMARK  225  A    between atoms: _554  and  _555
REMARK  226  A    between atoms: _557  and  _559
REMARK  227  A    between atoms: _559  and  _560
REMARK  228  A    between atoms: _559  and  _562
REMARK  229  A    between atoms: _562  and  _563
REMARK  230  A    between atoms: _566  and  _568
REMARK  231  A    between atoms: _568  and  _569
REMARK  232  A    between atoms: _568  and  _571
REMARK  233  A    between atoms: _571  and  _572
REMARK  234  A    between atoms: _578  and  _580
REMARK  235  A    between atoms: _580  and  _581
REMARK  236  A    between atoms: _580  and  _583
REMARK  237  A    between atoms: _583  and  _584
REMARK  238  A    between atoms: _586  and  _588
REMARK  239  A    between atoms: _588  and  _589
REMARK  240  A    between atoms: _588  and  _591
REMARK  241  A    between atoms: _591  and  _592
REMARK  242  A    between atoms: _595  and  _597
REMARK  243  A    between atoms: _597  and  _598
REMARK  244  A    between atoms: _597  and  _600
REMARK  245  A    between atoms: _600  and  _601
REMARK  246  A    between atoms: _607  and  _609
REMARK  247  A    between atoms: _609  and  _610
REMARK  248  A    between atoms: _612  and  _614
REMARK  249  A    between atoms: _614  and  _615
REMARK  250  A    between atoms: _614  and  _617
REMARK  251  A    between atoms: _617  and  _618
REMARK                            x       y       z     vdW  Elec       q    Type
REMARK                         _______ _______ _______ _____ _____    ______ ____
ROOT
ATOM      1  O   HOH     1      27.914   1.503  14.433  0.00  0.00    +0.000 OA
ENDROOT
TORSDOF 0
REMARK  Name = ../refined-set-2016/1bxq/1bxq_pocket.pdb
REMARK  251 active torsions:
REMARK  status: ('A' for Active; 'I' for Inactive)
REMARK    1  A    between atoms: _1  and  _3
REMARK    2  A    between atoms: _3  and  _4
REMARK    3  A    between atoms: _3  and  _6
REMARK    4  A    between atoms: _6  and  _7
REMARK    5  A    between atoms: _10  and  _12
REMARK    6  A    between atoms: _12  and  _13
REMARK    7  A    between atoms: _16  and  _18
REMARK    8  A    between atoms: _18  and  _19
REMARK    9  A    between atoms: _18  and  _21
REMARK   10  A    between atoms: _21  and  _22
REMARK   11  A    between atoms: _27  and  _29
REMARK   12  A    between atoms: _29  and  _30
REMARK   13  A    between atoms: _29  and  _32
REMARK   14  A    between atoms: _32  and  _33
REMARK   15  A    between atoms: _36  and  _38
REMARK   16  A    between atoms: _38  and  _39
REMARK   17  A    between atoms: _38  and  _41
REMARK   18  A    between atoms: _41  and  _42
REMARK   19  A    between atoms: _42  and  _43
REMARK   20  A    between atoms: _46  and  _48
REMARK   21  A    between atoms: _48  and  _49
REMARK   22  A    between atoms: _48  and  _51
REMARK   23  A    between atoms: _51  and  _52
REMARK   24  A    between atoms: _52  and  _53
REMARK   25  A    between atoms: _56  and  _58
REMARK   26  A    between atoms: _58  and  _59
REMARK   27  A    between atoms: _58  and  _61
REMARK   28  A    between atoms: _61  and  _62
REMARK   29  A    between atoms: _67  and  _68
REMARK   30  A    between atoms: _70  and  _72
REMARK   31  A    between atoms: _72  and  _73
REMARK   32  A    between atoms: _72  and  _75
REMARK   33  A    between atoms: _75  and  _76
REMARK   34  A    between atoms: _81  and  _83
REMARK   35  A    between atoms: _83  and  _84
REMARK   36  A    between atoms: _83  and  _86
REMARK   37  A    between atoms: _86  and  _87
REMARK   38  A    between atoms: _93  and  _95
REMARK   39  A    between atoms: _95  and  _96
REMARK   40  A    between atoms: _95  and  _98
REMARK   41  A    between atoms: _98  and  _99
REMARK   42  A    between atoms: _102  and  _104
REMARK   43  A    between atoms: _104  and  _105
REMARK   44  A    between atoms: _104  and  _107
REMARK   45  A    between atoms: _107  and  _108
REMARK   46  A    between atoms: _111  and  _113
REMARK   47  A    between atoms: _113  and  _114
REMARK   48  A    between atoms: _116  and  _118
REMARK   49  A    between atoms: _118  and  _119
REMARK   50  A    between atoms: _118  and  _121
REMARK   51  A    between atoms: _121  and  _122
REMARK   52  A    between atoms: _124  and  _126
REMARK   53  A    between atoms: _126  and  _127
REMARK   54  A    between atoms: _130  and  _132
REMARK   55  A    between atoms: _132  and  _133
REMARK   56  A    between atoms: _132  and  _135
REMARK   57  A    between atoms: _135  and  _136
REMARK   58  A    between atoms: _139  and  _141
REMARK   59  A    between atoms: _141  and  _142
REMARK   60  A    between atoms: _141  and  _144
REMARK   61  A    between atoms: _144  and  _145
REMARK   62  A    between atoms: _155  and  _157
REMARK   63  A    between atoms: _157  and  _158
REMARK   64  A    between atoms: _157  and  _160
REMARK   65  A    between atoms: _160  and  _161
REMARK   66  A    between atoms: _164  and  _166
REMARK   67  A    between atoms: _166  and  _167
REMARK   68  A    between atoms: _166  and  _169
REMARK   69  A    between atoms: _169  and  _170
REMARK   70  A    between atoms: _172  and  _174
REMARK   71  A    between atoms: _174  and  _175
REMARK   72  A    between atoms: _174  and  _177
REMARK   73  A    between atoms: _177  and  _178
REMARK   74  A    between atoms: _183  and  _184
REMARK   75  A    between atoms: _186  and  _188
REMARK   76  A    between atoms: _188  and  _189
REMARK   77  A    between atoms: _191  and  _193
REMARK   78  A    between atoms: _193  and  _194
REMARK   79  A    between atoms: _193  and  _196
REMARK   80  A    between atoms: _196  and  _197
REMARK   81  A    between atoms: _200  and  _202
REMARK   82  A    between atoms: _202  and  _203
REMARK   83  A    between atoms: _205  and  _207
REMARK   84  A    between atoms: _207  and  _208
REMARK   85  A    between atoms: _207  and  _210
REMARK   86  A    between atoms: _210  and  _211
REMARK   87  A    between atoms: _213  and  _215
REMARK   88  A    between atoms: _215  and  _216
REMARK   89  A    between atoms: _215  and  _218
REMARK   90  A    between atoms: _218  and  _219
REMARK   91  A    between atoms: _221  and  _223
REMARK   92  A    between atoms: _223  and  _224
REMARK   93  A    between atoms: _223  and  _226
REMARK   94  A    between atoms: _226  and  _227
REMARK   95  A    between atoms: _229  and  _231
REMARK   96  A    between atoms: _231  and  _232
REMARK   97  A    between atoms: _231  and  _234
REMARK   98  A    between atoms: _234  and  _235
REMARK   99  A    between atoms: _235  and  _236
REMARK  100  A    between atoms: _241  and  _243
REMARK  101  A    between atoms: _243  and  _244
REMARK  102  A    between atoms: _243  and  _246
REMARK  103  A    between atoms: _246  and  _247
REMARK  104  A    between atoms: _253  and  _255
REMARK  105  A    between atoms: _255  and  _256
REMARK  106  A    between atoms: _255  and  _258
REMARK  107  A    between atoms: _258  and  _259
REMARK  108  A    between atoms: _262  and  _264
REMARK  109  A    between atoms: _264  and  _265
REMARK  110  A    between atoms: _264  and  _267
REMARK  111  A    between atoms: _267  and  _268
REMARK  112  A    between atoms: _273  and  _275
REMARK  113  A    between atoms: _275  and  _276
REMARK  114  A    between atoms: _275  and  _278
REMARK  115  A    between atoms: _278  and  _279
REMARK  116  A    between atoms: _284  and  _286
REMARK  117  A    between atoms: _286  and  _287
REMARK  118  A    between atoms: _289  and  _291
REMARK  119  A    between atoms: _291  and  _292
REMARK  120  A    between atoms: _291  and  _294
REMARK  121  A    between atoms: _294  and  _295
REMARK  122  A    between atoms: _298  and  _300
REMARK  123  A    between atoms: _300  and  _301
REMARK  124  A    between atoms: _300  and  _303
REMARK  125  A    between atoms: _303  and  _304
REMARK  126  A    between atoms: _307  and  _309
REMARK  127  A    between atoms: _309  and  _310
REMARK  128  A    between atoms: _312  and  _314
REMARK  129  A    between atoms: _314  and  _315
REMARK  130  A    between atoms: _314  and  _317
REMARK  131  A    between atoms: _317  and  _318
REMARK  132  A    between atoms: _321  and  _323
REMARK  133  A    between atoms: _323  and  _324
REMARK  134  A    between atoms: _327  and  _329
REMARK  135  A    between atoms: _329  and  _330
REMARK  136  A    between atoms: _329  and  _332
REMARK  137  A    between atoms: _332  and  _333
REMARK  138  A    between atoms: _336  and  _338
REMARK  139  A    between atoms: _338  and  _339
REMARK  140  A    between atoms: _338  and  _341
REMARK  141  A    between atoms: _341  and  _342
REMARK  142  A    between atoms: _342  and  _343
REMARK  143  A    between atoms: _348  and  _350
REMARK  144  A    between atoms: _350  and  _351
REMARK  145  A    between atoms: _350  and  _353
REMARK  146  A    between atoms: _353  and  _354
REMARK  147  A    between atoms: _360  and  _362
REMARK  148  A    between atoms: _362  and  _363
REMARK  149  A    between atoms: _362  and  _365
REMARK  150  A    between atoms: _365  and  _366
REMARK  151  A    between atoms: _376  and  _378
REMARK  152  A    between atoms: _378  and  _379
REMARK  153  A    between atoms: _378  and  _381
REMARK  154  A    between atoms: _381  and  _382
REMARK  155  A    between atoms: _385  and  _387
REMARK  156  A    between atoms: _387  and  _388
REMARK  157  A    between atoms: _391  and  _393
REMARK  158  A    between atoms: _393  and  _394
REMARK  159  A    between atoms: _393  and  _396
REMARK  160  A    between atoms: _396  and  _397
REMARK  161  A    between atoms: _400  and  _402
REMARK  162  A    between atoms: _402  and  _403
REMARK  163  A    between atoms: _402  and  _405
REMARK  164  A    between atoms: _405  and  _406
REMARK  165  A    between atoms: _409  and  _411
REMARK  166  A    between atoms: _411  and  _412
REMARK  167  A    between atoms: _414  and  _416
REMARK  168  A    between atoms: _416  and  _417
REMARK  169  A    between atoms: _416  and  _419
REMARK  170  A    between atoms: _419  and  _420
REMARK  171  A    between atoms: _423  and  _425
REMARK  172  A    between atoms: _425  and  _426
REMARK  173  A    between atoms: _425  and  _428
REMARK  174  A    between atoms: _428  and  _429
REMARK  175  A    between atoms: _432  and  _434
REMARK  176  A    between atoms: _434  and  _435
REMARK  177  A    between atoms: _434  and  _437
REMARK  178  A    between atoms: _437  and  _438
REMARK  179  A    between atoms: _441  and  _443
REMARK  180  A    between atoms: _443  and  _444
REMARK  181  A    between atoms: _443  and  _446
REMARK  182  A    between atoms: _446  and  _447
REMARK  183  A    between atoms: _450  and  _452
REMARK  184  A    between atoms: _452  and  _453
REMARK  185  A    between atoms: _452  and  _455
REMARK  186  A    between atoms: _455  and  _456
REMARK  187  A    between atoms: _459  and  _461
REMARK  188  A    between atoms: _461  and  _462
REMARK  189  A    between atoms: _465  and  _467
REMARK  190  A    between atoms: _467  and  _468
REMARK  191  A    between atoms: _470  and  _472
REMARK  192  A    between atoms: _472  and  _473
REMARK  193  A    between atoms: _475  and  _477
REMARK  194  A    between atoms: _477  and  _478
REMARK  195  A    between atoms: _477  and  _480
REMARK  196  A    between atoms: _480  and  _481
REMARK  197  A    between atoms: _486  and  _487
REMARK  198  A    between atoms: _490  and  _491
REMARK  199  A    between atoms: _496  and  _498
REMARK  200  A    between atoms: _498  and  _499
REMARK  201  A    between atoms: _498  and  _501
REMARK  202  A    between atoms: _501  and  _502
REMARK  203  A    between atoms: _504  and  _506
REMARK  204  A    between atoms: _506  and  _507
REMARK  205  A    between atoms: _506  and  _509
REMARK  206  A    between atoms: _509  and  _510
REMARK  207  A    between atoms: _513  and  _515
REMARK  208  A    between atoms: _515  and  _516
REMARK  209  A    between atoms: _518  and  _520
REMARK  210  A    between atoms: _520  and  _521
REMARK  211  A    between atoms: _520  and  _523
REMARK  212  A    between atoms: _523  and  _524
REMARK  213  A    between atoms: _524  and  _525
REMARK  214  A    between atoms: _530  and  _532
REMARK  215  A    between atoms: _532  and  _533
REMARK  216  A    between atoms: _532  and  _535
REMARK  217  A    between atoms: _535  and  _536
REMARK  218  A    between atoms: _538  and  _540
REMARK  219  A    between atoms: _540  and  _541
REMARK  220  A    between atoms: _540  and  _543
REMARK  221  A    between atoms: _543  and  _544
REMARK  222  A    between atoms: _549  and  _551
REMARK  223  A    between atoms: _551  and  _552
REMARK  224  A    between atoms: _551  and  _554
REMARK  225  A    between atoms: _554  and  _555
REMARK  226  A    between atoms: _557  and  _559
REMARK  227  A    between atoms: _559  and  _560
REMARK  228  A    between atoms: _559  and  _562
REMARK  229  A    between atoms: _562  and  _563
REMARK  230  A    between atoms: _566  and  _568
REMARK  231  A    between atoms: _568  and  _569
REMARK  232  A    between atoms: _568  and  _571
REMARK  233  A    between atoms: _571  and  _572
REMARK  234  A    between atoms: _578  and  _580
REMARK  235  A    between atoms: _580  and  _581
REMARK  236  A    between atoms: _580  and  _583
REMARK  237  A    between atoms: _583  and  _584
REMARK  238  A    between atoms: _586  and  _588
REMARK  239  A    between atoms: _588  and  _589
REMARK  240  A    between atoms: _588  and  _591
REMARK  241  A    between atoms: _591  and  _592
REMARK  242  A    between atoms: _595  and  _597
REMARK  243  A    between atoms: _597  and  _598
REMARK  244  A    between atoms: _597  and  _600
REMARK  245  A    between atoms: _600  and  _601
REMARK  246  A    between atoms: _607  and  _609
REMARK  247  A    between atoms: _609  and  _610
REMARK  248  A    between atoms: _612  and  _614
REMARK  249  A    between atoms: _614  and  _615
REMARK  250  A    between atoms: _614  and  _617
REMARK  251  A    between atoms: _617  and  _618
REMARK                            x       y       z     vdW  Elec       q    Type
REMARK                         _______ _______ _______ _____ _____    ______ ____
ROOT
ATOM      1  O   HOH     1      22.839   0.730  23.808  0.00  0.00    +0.000 OA
ENDROOT
TORSDOF 0
REMARK  Name = ../refined-set-2016/1bxq/1bxq_pocket.pdb
REMARK  251 active torsions:
REMARK  status: ('A' for Active; 'I' for Inactive)
REMARK    1  A    between atoms: _1  and  _3
REMARK    2  A    between atoms: _3  and  _4
REMARK    3  A    between atoms: _3  and  _6
REMARK    4  A    between atoms: _6  and  _7
REMARK    5  A    between atoms: _10  and  _12
REMARK    6  A    between atoms: _12  and  _13
REMARK    7  A    between atoms: _16  and  _18
REMARK    8  A    between atoms: _18  and  _19
REMARK    9  A    between atoms: _18  and  _21
REMARK   10  A    between atoms: _21  and  _22
REMARK   11  A    between atoms: _27  and  _29
REMARK   12  A    between atoms: _29  and  _30
REMARK   13  A    between atoms: _29  and  _32
REMARK   14  A    between atoms: _32  and  _33
REMARK   15  A    between atoms: _36  and  _38
REMARK   16  A    between atoms: _38  and  _39
REMARK   17  A    between atoms: _38  and  _41
REMARK   18  A    between atoms: _41  and  _42
REMARK   19  A    between atoms: _42  and  _43
REMARK   20  A    between atoms: _46  and  _48
REMARK   21  A    between atoms: _48  and  _49
REMARK   22  A    between atoms: _48  and  _51
REMARK   23  A    between atoms: _51  and  _52
REMARK   24  A    between atoms: _52  and  _53
REMARK   25  A    between atoms: _56  and  _58
REMARK   26  A    between atoms: _58  and  _59
REMARK   27  A    between atoms: _58  and  _61
REMARK   28  A    between atoms: _61  and  _62
REMARK   29  A    between atoms: _67  and  _68
REMARK   30  A    between atoms: _70  and  _72
REMARK   31  A    between atoms: _72  and  _73
REMARK   32  A    between atoms: _72  and  _75
REMARK   33  A    between atoms: _75  and  _76
REMARK   34  A    between atoms: _81  and  _83
REMARK   35  A    between atoms: _83  and  _84
REMARK   36  A    between atoms: _83  and  _86
REMARK   37  A    between atoms: _86  and  _87
REMARK   38  A    between atoms: _93  and  _95
REMARK   39  A    between atoms: _95  and  _96
REMARK   40  A    between atoms: _95  and  _98
REMARK   41  A    between atoms: _98  and  _99
REMARK   42  A    between atoms: _102  and  _104
REMARK   43  A    between atoms: _104  and  _105
REMARK   44  A    between atoms: _104  and  _107
REMARK   45  A    between atoms: _107  and  _108
REMARK   46  A    between atoms: _111  and  _113
REMARK   47  A    between atoms: _113  and  _114
REMARK   48  A    between atoms: _116  and  _118
REMARK   49  A    between atoms: _118  and  _119
REMARK   50  A    between atoms: _118  and  _121
REMARK   51  A    between atoms: _121  and  _122
REMARK   52  A    between atoms: _124  and  _126
REMARK   53  A    between atoms: _126  and  _127
REMARK   54  A    between atoms: _130  and  _132
REMARK   55  A    between atoms: _132  and  _133
REMARK   56  A    between atoms: _132  and  _135
REMARK   57  A    between atoms: _135  and  _136
REMARK   58  A    between atoms: _139  and  _141
REMARK   59  A    between atoms: _141  and  _142
REMARK   60  A    between atoms: _141  and  _144
REMARK   61  A    between atoms: _144  and  _145
REMARK   62  A    between atoms: _155  and  _157
REMARK   63  A    between atoms: _157  and  _158
REMARK   64  A    between atoms: _157  and  _160
REMARK   65  A    between atoms: _160  and  _161
REMARK   66  A    between atoms: _164  and  _166
REMARK   67  A    between atoms: _166  and  _167
REMARK   68  A    between atoms: _166  and  _169
REMARK   69  A    between atoms: _169  and  _170
REMARK   70  A    between atoms: _172  and  _174
REMARK   71  A    between atoms: _174  and  _175
REMARK   72  A    between atoms: _174  and  _177
REMARK   73  A    between atoms: _177  and  _178
REMARK   74  A    between atoms: _183  and  _184
REMARK   75  A    between atoms: _186  and  _188
REMARK   76  A    between atoms: _188  and  _189
REMARK   77  A    between atoms: _191  and  _193
REMARK   78  A    between atoms: _193  and  _194
REMARK   79  A    between atoms: _193  and  _196
REMARK   80  A    between atoms: _196  and  _197
REMARK   81  A    between atoms: _200  and  _202
REMARK   82  A    between atoms: _202  and  _203
REMARK   83  A    between atoms: _205  and  _207
REMARK   84  A    between atoms: _207  and  _208
REMARK   85  A    between atoms: _207  and  _210
REMARK   86  A    between atoms: _210  and  _211
REMARK   87  A    between atoms: _213  and  _215
REMARK   88  A    between atoms: _215  and  _216
REMARK   89  A    between atoms: _215  and  _218
REMARK   90  A    between atoms: _218  and  _219
REMARK   91  A    between atoms: _221  and  _223
REMARK   92  A    between atoms: _223  and  _224
REMARK   93  A    between atoms: _223  and  _226
REMARK   94  A    between atoms: _226  and  _227
REMARK   95  A    between atoms: _229  and  _231
REMARK   96  A    between atoms: _231  and  _232
REMARK   97  A    between atoms: _231  and  _234
REMARK   98  A    between atoms: _234  and  _235
REMARK   99  A    between atoms: _235  and  _236
REMARK  100  A    between atoms: _241  and  _243
REMARK  101  A    between atoms: _243  and  _244
REMARK  102  A    between atoms: _243  and  _246
REMARK  103  A    between atoms: _246  and  _247
REMARK  104  A    between atoms: _253  and  _255
REMARK  105  A    between atoms: _255  and  _256
REMARK  106  A    between atoms: _255  and  _258
REMARK  107  A    between atoms: _258  and  _259
REMARK  108  A    between atoms: _262  and  _264
REMARK  109  A    between atoms: _264  and  _265
REMARK  110  A    between atoms: _264  and  _267
REMARK  111  A    between atoms: _267  and  _268
REMARK  112  A    between atoms: _273  and  _275
REMARK  113  A    between atoms: _275  and  _276
REMARK  114  A    between atoms: _275  and  _278
REMARK  115  A    between atoms: _278  and  _279
REMARK  116  A    between atoms: _284  and  _286
REMARK  117  A    between atoms: _286  and  _287
REMARK  118  A    between atoms: _289  and  _291
REMARK  119  A    between atoms: _291  and  _292
REMARK  120  A    between atoms: _291  and  _294
REMARK  121  A    between atoms: _294  and  _295
REMARK  122  A    between atoms: _298  and  _300
REMARK  123  A    between atoms: _300  and  _301
REMARK  124  A    between atoms: _300  and  _303
REMARK  125  A    between atoms: _303  and  _304
REMARK  126  A    between atoms: _307  and  _309
REMARK  127  A    between atoms: _309  and  _310
REMARK  128  A    between atoms: _312  and  _314
REMARK  129  A    between atoms: _314  and  _315
REMARK  130  A    between atoms: _314  and  _317
REMARK  131  A    between atoms: _317  and  _318
REMARK  132  A    between atoms: _321  and  _323
REMARK  133  A    between atoms: _323  and  _324
REMARK  134  A    between atoms: _327  and  _329
REMARK  135  A    between atoms: _329  and  _330
REMARK  136  A    between atoms: _329  and  _332
REMARK  137  A    between atoms: _332  and  _333
REMARK  138  A    between atoms: _336  and  _338
REMARK  139  A    between atoms: _338  and  _339
REMARK  140  A    between atoms: _338  and  _341
REMARK  141  A    between atoms: _341  and  _342
REMARK  142  A    between atoms: _342  and  _343
REMARK  143  A    between atoms: _348  and  _350
REMARK  144  A    between atoms: _350  and  _351
REMARK  145  A    between atoms: _350  and  _353
REMARK  146  A    between atoms: _353  and  _354
REMARK  147  A    between atoms: _360  and  _362
REMARK  148  A    between atoms: _362  and  _363
REMARK  149  A    between atoms: _362  and  _365
REMARK  150  A    between atoms: _365  and  _366
REMARK  151  A    between atoms: _376  and  _378
REMARK  152  A    between atoms: _378  and  _379
REMARK  153  A    between atoms: _378  and  _381
REMARK  154  A    between atoms: _381  and  _382
REMARK  155  A    between atoms: _385  and  _387
REMARK  156  A    between atoms: _387  and  _388
REMARK  157  A    between atoms: _391  and  _393
REMARK  158  A    between atoms: _393  and  _394
REMARK  159  A    between atoms: _393  and  _396
REMARK  160  A    between atoms: _396  and  _397
REMARK  161  A    between atoms: _400  and  _402
REMARK  162  A    between atoms: _402  and  _403
REMARK  163  A    between atoms: _402  and  _405
REMARK  164  A    between atoms: _405  and  _406
REMARK  165  A    between atoms: _409  and  _411
REMARK  166  A    between atoms: _411  and  _412
REMARK  167  A    between atoms: _414  and  _416
REMARK  168  A    between atoms: _416  and  _417
REMARK  169  A    between atoms: _416  and  _419
REMARK  170  A    between atoms: _419  and  _420
REMARK  171  A    between atoms: _423  and  _425
REMARK  172  A    between atoms: _425  and  _426
REMARK  173  A    between atoms: _425  and  _428
REMARK  174  A    between atoms: _428  and  _429
REMARK  175  A    between atoms: _432  and  _434
REMARK  176  A    between atoms: _434  and  _435
REMARK  177  A    between atoms: _434  and  _437
REMARK  178  A    between atoms: _437  and  _438
REMARK  179  A    between atoms: _441  and  _443
REMARK  180  A    between atoms: _443  and  _444
REMARK  181  A    between atoms: _443  and  _446
REMARK  182  A    between atoms: _446  and  _447
REMARK  183  A    between atoms: _450  and  _452
REMARK  184  A    between atoms: _452  and  _453
REMARK  185  A    between atoms: _452  and  _455
REMARK  186  A    between atoms: _455  and  _456
REMARK  187  A    between atoms: _459  and  _461
REMARK  188  A    between atoms: _461  and  _462
REMARK  189  A    between atoms: _465  and  _467
REMARK  190  A    between atoms: _467  and  _468
REMARK  191  A    between atoms: _470  and  _472
REMARK  192  A    between atoms: _472  and  _473
REMARK  193  A    between atoms: _475  and  _477
REMARK  194  A    between atoms: _477  and  _478
REMARK  195  A    between atoms: _477  and  _480
REMARK  196  A    between atoms: _480  and  _481
REMARK  197  A    between atoms: _486  and  _487
REMARK  198  A    between atoms: _490  and  _491
REMARK  199  A    between atoms: _496  and  _498
REMARK  200  A    between atoms: _498  and  _499
REMARK  201  A    between atoms: _498  and  _501
REMARK  202  A    between atoms: _501  and  _502
REMARK  203  A    between atoms: _504  and  _506
REMARK  204  A    between atoms: _506  and  _507
REMARK  205  A    between atoms: _506  and  _509
REMARK  206  A    between atoms: _509  and  _510
REMARK  207  A    between atoms: _513  and  _515
REMARK  208  A    between atoms: _515  and  _516
REMARK  209  A    between atoms: _518  and  _520
REMARK  210  A    between atoms: _520  and  _521
REMARK  211  A    between atoms: _520  and  _523
REMARK  212  A    between atoms: _523  and  _524
REMARK  213  A    between atoms: _524  and  _525
REMARK  214  A    between atoms: _530  and  _532
REMARK  215  A    between atoms: _532  and  _533
REMARK  216  A    between atoms: _532  and  _535
REMARK  217  A    between atoms: _535  and  _536
REMARK  218  A    between atoms: _538  and  _540
REMARK  219  A    between atoms: _540  and  _541
REMARK  220  A    between atoms: _540  and  _543
REMARK  221  A    between atoms: _543  and  _544
REMARK  222  A    between atoms: _549  and  _551
REMARK  223  A    between atoms: _551  and  _552
REMARK  224  A    between atoms: _551  and  _554
REMARK  225  A    between atoms: _554  and  _555
REMARK  226  A    between atoms: _557  and  _559
REMARK  227  A    between atoms: _559  and  _560
REMARK  228  A    between atoms: _559  and  _562
REMARK  229  A    between atoms: _562  and  _563
REMARK  230  A    between atoms: _566  and  _568
REMARK  231  A    between atoms: _568  and  _569
REMARK  232  A    between atoms: _568  and  _571
REMARK  233  A    between atoms: _571  and  _572
REMARK  234  A    between atoms: _578  and  _580
REMARK  235  A    between atoms: _580  and  _581
REMARK  236  A    between atoms: _580  and  _583
REMARK  237  A    between atoms: _583  and  _584
REMARK  238  A    between atoms: _586  and  _588
REMARK  239  A    between atoms: _588  and  _589
REMARK  240  A    between atoms: _588  and  _591
REMARK  241  A    between atoms: _591  and  _592
REMARK  242  A    between atoms: _595  and  _597
REMARK  243  A    between atoms: _597  and  _598
REMARK  244  A    between atoms: _597  and  _600
REMARK  245  A    between atoms: _600  and  _601
REMARK  246  A    between atoms: _607  and  _609
REMARK  247  A    between atoms: _609  and  _610
REMARK  248  A    between atoms: _612  and  _614
REMARK  249  A    between atoms: _614  and  _615
REMARK  250  A    between atoms: _614  and  _617
REMARK  251  A    between atoms: _617  and  _618
REMARK                            x       y       z     vdW  Elec       q    Type
REMARK                         _______ _______ _______ _____ _____    ______ ____
ROOT
ATOM      1  O   HOH     1      25.327   6.719  29.193  0.00  0.00    +0.000 OA
ENDROOT
TORSDOF 0
REMARK  Name = ../refined-set-2016/1bxq/1bxq_pocket.pdb
REMARK  251 active torsions:
REMARK  status: ('A' for Active; 'I' for Inactive)
REMARK    1  A    between atoms: _1  and  _3
REMARK    2  A    between atoms: _3  and  _4
REMARK    3  A    between atoms: _3  and  _6
REMARK    4  A    between atoms: _6  and  _7
REMARK    5  A    between atoms: _10  and  _12
REMARK    6  A    between atoms: _12  and  _13
REMARK    7  A    between atoms: _16  and  _18
REMARK    8  A    between atoms: _18  and  _19
REMARK    9  A    between atoms: _18  and  _21
REMARK   10  A    between atoms: _21  and  _22
REMARK   11  A    between atoms: _27  and  _29
REMARK   12  A    between atoms: _29  and  _30
REMARK   13  A    between atoms: _29  and  _32
REMARK   14  A    between atoms: _32  and  _33
REMARK   15  A    between atoms: _36  and  _38
REMARK   16  A    between atoms: _38  and  _39
REMARK   17  A    between atoms: _38  and  _41
REMARK   18  A    between atoms: _41  and  _42
REMARK   19  A    between atoms: _42  and  _43
REMARK   20  A    between atoms: _46  and  _48
REMARK   21  A    between atoms: _48  and  _49
REMARK   22  A    between atoms: _48  and  _51
REMARK   23  A    between atoms: _51  and  _52
REMARK   24  A    between atoms: _52  and  _53
REMARK   25  A    between atoms: _56  and  _58
REMARK   26  A    between atoms: _58  and  _59
REMARK   27  A    between atoms: _58  and  _61
REMARK   28  A    between atoms: _61  and  _62
REMARK   29  A    between atoms: _67  and  _68
REMARK   30  A    between atoms: _70  and  _72
REMARK   31  A    between atoms: _72  and  _73
REMARK   32  A    between atoms: _72  and  _75
REMARK   33  A    between atoms: _75  and  _76
REMARK   34  A    between atoms: _81  and  _83
REMARK   35  A    between atoms: _83  and  _84
REMARK   36  A    between atoms: _83  and  _86
REMARK   37  A    between atoms: _86  and  _87
REMARK   38  A    between atoms: _93  and  _95
REMARK   39  A    between atoms: _95  and  _96
REMARK   40  A    between atoms: _95  and  _98
REMARK   41  A    between atoms: _98  and  _99
REMARK   42  A    between atoms: _102  and  _104
REMARK   43  A    between atoms: _104  and  _105
REMARK   44  A    between atoms: _104  and  _107
REMARK   45  A    between atoms: _107  and  _108
REMARK   46  A    between atoms: _111  and  _113
REMARK   47  A    between atoms: _113  and  _114
REMARK   48  A    between atoms: _116  and  _118
REMARK   49  A    between atoms: _118  and  _119
REMARK   50  A    between atoms: _118  and  _121
REMARK   51  A    between atoms: _121  and  _122
REMARK   52  A    between atoms: _124  and  _126
REMARK   53  A    between atoms: _126  and  _127
REMARK   54  A    between atoms: _130  and  _132
REMARK   55  A    between atoms: _132  and  _133
REMARK   56  A    between atoms: _132  and  _135
REMARK   57  A    between atoms: _135  and  _136
REMARK   58  A    between atoms: _139  and  _141
REMARK   59  A    between atoms: _141  and  _142
REMARK   60  A    between atoms: _141  and  _144
REMARK   61  A    between atoms: _144  and  _145
REMARK   62  A    between atoms: _155  and  _157
REMARK   63  A    between atoms: _157  and  _158
REMARK   64  A    between atoms: _157  and  _160
REMARK   65  A    between atoms: _160  and  _161
REMARK   66  A    between atoms: _164  and  _166
REMARK   67  A    between atoms: _166  and  _167
REMARK   68  A    between atoms: _166  and  _169
REMARK   69  A    between atoms: _169  and  _170
REMARK   70  A    between atoms: _172  and  _174
REMARK   71  A    between atoms: _174  and  _175
REMARK   72  A    between atoms: _174  and  _177
REMARK   73  A    between atoms: _177  and  _178
REMARK   74  A    between atoms: _183  and  _184
REMARK   75  A    between atoms: _186  and  _188
REMARK   76  A    between atoms: _188  and  _189
REMARK   77  A    between atoms: _191  and  _193
REMARK   78  A    between atoms: _193  and  _194
REMARK   79  A    between atoms: _193  and  _196
REMARK   80  A    between atoms: _196  and  _197
REMARK   81  A    between atoms: _200  and  _202
REMARK   82  A    between atoms: _202  and  _203
REMARK   83  A    between atoms: _205  and  _207
REMARK   84  A    between atoms: _207  and  _208
REMARK   85  A    between atoms: _207  and  _210
REMARK   86  A    between atoms: _210  and  _211
REMARK   87  A    between atoms: _213  and  _215
REMARK   88  A    between atoms: _215  and  _216
REMARK   89  A    between atoms: _215  and  _218
REMARK   90  A    between atoms: _218  and  _219
REMARK   91  A    between atoms: _221  and  _223
REMARK   92  A    between atoms: _223  and  _224
REMARK   93  A    between atoms: _223  and  _226
REMARK   94  A    between atoms: _226  and  _227
REMARK   95  A    between atoms: _229  and  _231
REMARK   96  A    between atoms: _231  and  _232
REMARK   97  A    between atoms: _231  and  _234
REMARK   98  A    between atoms: _234  and  _235
REMARK   99  A    between atoms: _235  and  _236
REMARK  100  A    between atoms: _241  and  _243
REMARK  101  A    between atoms: _243  and  _244
REMARK  102  A    between atoms: _243  and  _246
REMARK  103  A    between atoms: _246  and  _247
REMARK  104  A    between atoms: _253  and  _255
REMARK  105  A    between atoms: _255  and  _256
REMARK  106  A    between atoms: _255  and  _258
REMARK  107  A    between atoms: _258  and  _259
REMARK  108  A    between atoms: _262  and  _264
REMARK  109  A    between atoms: _264  and  _265
REMARK  110  A    between atoms: _264  and  _267
REMARK  111  A    between atoms: _267  and  _268
REMARK  112  A    between atoms: _273  and  _275
REMARK  113  A    between atoms: _275  and  _276
REMARK  114  A    between atoms: _275  and  _278
REMARK  115  A    between atoms: _278  and  _279
REMARK  116  A    between atoms: _284  and  _286
REMARK  117  A    between atoms: _286  and  _287
REMARK  118  A    between atoms: _289  and  _291
REMARK  119  A    between atoms: _291  and  _292
REMARK  120  A    between atoms: _291  and  _294
REMARK  121  A    between atoms: _294  and  _295
REMARK  122  A    between atoms: _298  and  _300
REMARK  123  A    between atoms: _300  and  _301
REMARK  124  A    between atoms: _300  and  _303
REMARK  125  A    between atoms: _303  and  _304
REMARK  126  A    between atoms: _307  and  _309
REMARK  127  A    between atoms: _309  and  _310
REMARK  128  A    between atoms: _312  and  _314
REMARK  129  A    between atoms: _314  and  _315
REMARK  130  A    between atoms: _314  and  _317
REMARK  131  A    between atoms: _317  and  _318
REMARK  132  A    between atoms: _321  and  _323
REMARK  133  A    between atoms: _323  and  _324
REMARK  134  A    between atoms: _327  and  _329
REMARK  135  A    between atoms: _329  and  _330
REMARK  136  A    between atoms: _329  and  _332
REMARK  137  A    between atoms: _332  and  _333
REMARK  138  A    between atoms: _336  and  _338
REMARK  139  A    between atoms: _338  and  _339
REMARK  140  A    between atoms: _338  and  _341
REMARK  141  A    between atoms: _341  and  _342
REMARK  142  A    between atoms: _342  and  _343
REMARK  143  A    between atoms: _348  and  _350
REMARK  144  A    between atoms: _350  and  _351
REMARK  145  A    between atoms: _350  and  _353
REMARK  146  A    between atoms: _353  and  _354
REMARK  147  A    between atoms: _360  and  _362
REMARK  148  A    between atoms: _362  and  _363
REMARK  149  A    between atoms: _362  and  _365
REMARK  150  A    between atoms: _365  and  _366
REMARK  151  A    between atoms: _376  and  _378
REMARK  152  A    between atoms: _378  and  _379
REMARK  153  A    between atoms: _378  and  _381
REMARK  154  A    between atoms: _381  and  _382
REMARK  155  A    between atoms: _385  and  _387
REMARK  156  A    between atoms: _387  and  _388
REMARK  157  A    between atoms: _391  and  _393
REMARK  158  A    between atoms: _393  and  _394
REMARK  159  A    between atoms: _393  and  _396
REMARK  160  A    between atoms: _396  and  _397
REMARK  161  A    between atoms: _400  and  _402
REMARK  162  A    between atoms: _402  and  _403
REMARK  163  A    between atoms: _402  and  _405
REMARK  164  A    between atoms: _405  and  _406
REMARK  165  A    between atoms: _409  and  _411
REMARK  166  A    between atoms: _411  and  _412
REMARK  167  A    between atoms: _414  and  _416
REMARK  168  A    between atoms: _416  and  _417
REMARK  169  A    between atoms: _416  and  _419
REMARK  170  A    between atoms: _419  and  _420
REMARK  171  A    between atoms: _423  and  _425
REMARK  172  A    between atoms: _425  and  _426
REMARK  173  A    between atoms: _425  and  _428
REMARK  174  A    between atoms: _428  and  _429
REMARK  175  A    between atoms: _432  and  _434
REMARK  176  A    between atoms: _434  and  _435
REMARK  177  A    between atoms: _434  and  _437
REMARK  178  A    between atoms: _437  and  _438
REMARK  179  A    between atoms: _441  and  _443
REMARK  180  A    between atoms: _443  and  _444
REMARK  181  A    between atoms: _443  and  _446
REMARK  182  A    between atoms: _446  and  _447
REMARK  183  A    between atoms: _450  and  _452
REMARK  184  A    between atoms: _452  and  _453
REMARK  185  A    between atoms: _452  and  _455
REMARK  186  A    between atoms: _455  and  _456
REMARK  187  A    between atoms: _459  and  _461
REMARK  188  A    between atoms: _461  and  _462
REMARK  189  A    between atoms: _465  and  _467
REMARK  190  A    between atoms: _467  and  _468
REMARK  191  A    between atoms: _470  and  _472
REMARK  192  A    between atoms: _472  and  _473
REMARK  193  A    between atoms: _475  and  _477
REMARK  194  A    between atoms: _477  and  _478
REMARK  195  A    between atoms: _477  and  _480
REMARK  196  A    between atoms: _480  and  _481
REMARK  197  A    between atoms: _486  and  _487
REMARK  198  A    between atoms: _490  and  _491
REMARK  199  A    between atoms: _496  and  _498
REMARK  200  A    between atoms: _498  and  _499
REMARK  201  A    between atoms: _498  and  _501
REMARK  202  A    between atoms: _501  and  _502
REMARK  203  A    between atoms: _504  and  _506
REMARK  204  A    between atoms: _506  and  _507
REMARK  205  A    between atoms: _506  and  _509
REMARK  206  A    between atoms: _509  and  _510
REMARK  207  A    between atoms: _513  and  _515
REMARK  208  A    between atoms: _515  and  _516
REMARK  209  A    between atoms: _518  and  _520
REMARK  210  A    between atoms: _520  and  _521
REMARK  211  A    between atoms: _520  and  _523
REMARK  212  A    between atoms: _523  and  _524
REMARK  213  A    between atoms: _524  and  _525
REMARK  214  A    between atoms: _530  and  _532
REMARK  215  A    between atoms: _532  and  _533
REMARK  216  A    between atoms: _532  and  _535
REMARK  217  A    between atoms: _535  and  _536
REMARK  218  A    between atoms: _538  and  _540
REMARK  219  A    between atoms: _540  and  _541
REMARK  220  A    between atoms: _540  and  _543
REMARK  221  A    between atoms: _543  and  _544
REMARK  222  A    between atoms: _549  and  _551
REMARK  223  A    between atoms: _551  and  _552
REMARK  224  A    between atoms: _551  and  _554
REMARK  225  A    between atoms: _554  and  _555
REMARK  226  A    between atoms: _557  and  _559
REMARK  227  A    between atoms: _559  and  _560
REMARK  228  A    between atoms: _559  and  _562
REMARK  229  A    between atoms: _562  and  _563
REMARK  230  A    between atoms: _566  and  _568
REMARK  231  A    between atoms: _568  and  _569
REMARK  232  A    between atoms: _568  and  _571
REMARK  233  A    between atoms: _571  and  _572
REMARK  234  A    between atoms: _578  and  _580
REMARK  235  A    between atoms: _580  and  _581
REMARK  236  A    between atoms: _580  and  _583
REMARK  237  A    between atoms: _583  and  _584
REMARK  238  A    between atoms: _586  and  _588
REMARK  239  A    between atoms: _588  and  _589
REMARK  240  A    between atoms: _588  and  _591
REMARK  241  A    between atoms: _591  and  _592
REMARK  242  A    between atoms: _595  and  _597
REMARK  243  A    between atoms: _597  and  _598
REMARK  244  A    between atoms: _597  and  _600
REMARK  245  A    between atoms: _600  and  _601
REMARK  246  A    between atoms: _607  and  _609
REMARK  247  A    between atoms: _609  and  _610
REMARK  248  A    between atoms: _612  and  _614
REMARK  249  A    between atoms: _614  and  _615
REMARK  250  A    between atoms: _614  and  _617
REMARK  251  A    between atoms: _617  and  _618
REMARK                            x       y       z     vdW  Elec       q    Type
REMARK                         _______ _______ _______ _____ _____    ______ ____
ROOT
ATOM      1  O   HOH     1      27.619  14.616  24.306  0.00  0.00    +0.000 OA
ENDROOT
TORSDOF 0
REMARK  Name = ../refined-set-2016/1bxq/1bxq_pocket.pdb
REMARK  251 active torsions:
REMARK  status: ('A' for Active; 'I' for Inactive)
REMARK    1  A    between atoms: _1  and  _3
REMARK    2  A    between atoms: _3  and  _4
REMARK    3  A    between atoms: _3  and  _6
REMARK    4  A    between atoms: _6  and  _7
REMARK    5  A    between atoms: _10  and  _12
REMARK    6  A    between atoms: _12  and  _13
REMARK    7  A    between atoms: _16  and  _18
REMARK    8  A    between atoms: _18  and  _19
REMARK    9  A    between atoms: _18  and  _21
REMARK   10  A    between atoms: _21  and  _22
REMARK   11  A    between atoms: _27  and  _29
REMARK   12  A    between atoms: _29  and  _30
REMARK   13  A    between atoms: _29  and  _32
REMARK   14  A    between atoms: _32  and  _33
REMARK   15  A    between atoms: _36  and  _38
REMARK   16  A    between atoms: _38  and  _39
REMARK   17  A    between atoms: _38  and  _41
REMARK   18  A    between atoms: _41  and  _42
REMARK   19  A    between atoms: _42  and  _43
REMARK   20  A    between atoms: _46  and  _48
REMARK   21  A    between atoms: _48  and  _49
REMARK   22  A    between atoms: _48  and  _51
REMARK   23  A    between atoms: _51  and  _52
REMARK   24  A    between atoms: _52  and  _53
REMARK   25  A    between atoms: _56  and  _58
REMARK   26  A    between atoms: _58  and  _59
REMARK   27  A    between atoms: _58  and  _61
REMARK   28  A    between atoms: _61  and  _62
REMARK   29  A    between atoms: _67  and  _68
REMARK   30  A    between atoms: _70  and  _72
REMARK   31  A    between atoms: _72  and  _73
REMARK   32  A    between atoms: _72  and  _75
REMARK   33  A    between atoms: _75  and  _76
REMARK   34  A    between atoms: _81  and  _83
REMARK   35  A    between atoms: _83  and  _84
REMARK   36  A    between atoms: _83  and  _86
REMARK   37  A    between atoms: _86  and  _87
REMARK   38  A    between atoms: _93  and  _95
REMARK   39  A    between atoms: _95  and  _96
REMARK   40  A    between atoms: _95  and  _98
REMARK   41  A    between atoms: _98  and  _99
REMARK   42  A    between atoms: _102  and  _104
REMARK   43  A    between atoms: _104  and  _105
REMARK   44  A    between atoms: _104  and  _107
REMARK   45  A    between atoms: _107  and  _108
REMARK   46  A    between atoms: _111  and  _113
REMARK   47  A    between atoms: _113  and  _114
REMARK   48  A    between atoms: _116  and  _118
REMARK   49  A    between atoms: _118  and  _119
REMARK   50  A    between atoms: _118  and  _121
REMARK   51  A    between atoms: _121  and  _122
REMARK   52  A    between atoms: _124  and  _126
REMARK   53  A    between atoms: _126  and  _127
REMARK   54  A    between atoms: _130  and  _132
REMARK   55  A    between atoms: _132  and  _133
REMARK   56  A    between atoms: _132  and  _135
REMARK   57  A    between atoms: _135  and  _136
REMARK   58  A    between atoms: _139  and  _141
REMARK   59  A    between atoms: _141  and  _142
REMARK   60  A    between atoms: _141  and  _144
REMARK   61  A    between atoms: _144  and  _145
REMARK   62  A    between atoms: _155  and  _157
REMARK   63  A    between atoms: _157  and  _158
REMARK   64  A    between atoms: _157  and  _160
REMARK   65  A    between atoms: _160  and  _161
REMARK   66  A    between atoms: _164  and  _166
REMARK   67  A    between atoms: _166  and  _167
REMARK   68  A    between atoms: _166  and  _169
REMARK   69  A    between atoms: _169  and  _170
REMARK   70  A    between atoms: _172  and  _174
REMARK   71  A    between atoms: _174  and  _175
REMARK   72  A    between atoms: _174  and  _177
REMARK   73  A    between atoms: _177  and  _178
REMARK   74  A    between atoms: _183  and  _184
REMARK   75  A    between atoms: _186  and  _188
REMARK   76  A    between atoms: _188  and  _189
REMARK   77  A    between atoms: _191  and  _193
REMARK   78  A    between atoms: _193  and  _194
REMARK   79  A    between atoms: _193  and  _196
REMARK   80  A    between atoms: _196  and  _197
REMARK   81  A    between atoms: _200  and  _202
REMARK   82  A    between atoms: _202  and  _203
REMARK   83  A    between atoms: _205  and  _207
REMARK   84  A    between atoms: _207  and  _208
REMARK   85  A    between atoms: _207  and  _210
REMARK   86  A    between atoms: _210  and  _211
REMARK   87  A    between atoms: _213  and  _215
REMARK   88  A    between atoms: _215  and  _216
REMARK   89  A    between atoms: _215  and  _218
REMARK   90  A    between atoms: _218  and  _219
REMARK   91  A    between atoms: _221  and  _223
REMARK   92  A    between atoms: _223  and  _224
REMARK   93  A    between atoms: _223  and  _226
REMARK   94  A    between atoms: _226  and  _227
REMARK   95  A    between atoms: _229  and  _231
REMARK   96  A    between atoms: _231  and  _232
REMARK   97  A    between atoms: _231  and  _234
REMARK   98  A    between atoms: _234  and  _235
REMARK   99  A    between atoms: _235  and  _236
REMARK  100  A    between atoms: _241  and  _243
REMARK  101  A    between atoms: _243  and  _244
REMARK  102  A    between atoms: _243  and  _246
REMARK  103  A    between atoms: _246  and  _247
REMARK  104  A    between atoms: _253  and  _255
REMARK  105  A    between atoms: _255  and  _256
REMARK  106  A    between atoms: _255  and  _258
REMARK  107  A    between atoms: _258  and  _259
REMARK  108  A    between atoms: _262  and  _264
REMARK  109  A    between atoms: _264  and  _265
REMARK  110  A    between atoms: _264  and  _267
REMARK  111  A    between atoms: _267  and  _268
REMARK  112  A    between atoms: _273  and  _275
REMARK  113  A    between atoms: _275  and  _276
REMARK  114  A    between atoms: _275  and  _278
REMARK  115  A    between atoms: _278  and  _279
REMARK  116  A    between atoms: _284  and  _286
REMARK  117  A    between atoms: _286  and  _287
REMARK  118  A    between atoms: _289  and  _291
REMARK  119  A    between atoms: _291  and  _292
REMARK  120  A    between atoms: _291  and  _294
REMARK  121  A    between atoms: _294  and  _295
REMARK  122  A    between atoms: _298  and  _300
REMARK  123  A    between atoms: _300  and  _301
REMARK  124  A    between atoms: _300  and  _303
REMARK  125  A    between atoms: _303  and  _304
REMARK  126  A    between atoms: _307  and  _309
REMARK  127  A    between atoms: _309  and  _310
REMARK  128  A    between atoms: _312  and  _314
REMARK  129  A    between atoms: _314  and  _315
REMARK  130  A    between atoms: _314  and  _317
REMARK  131  A    between atoms: _317  and  _318
REMARK  132  A    between atoms: _321  and  _323
REMARK  133  A    between atoms: _323  and  _324
REMARK  134  A    between atoms: _327  and  _329
REMARK  135  A    between atoms: _329  and  _330
REMARK  136  A    between atoms: _329  and  _332
REMARK  137  A    between atoms: _332  and  _333
REMARK  138  A    between atoms: _336  and  _338
REMARK  139  A    between atoms: _338  and  _339
REMARK  140  A    between atoms: _338  and  _341
REMARK  141  A    between atoms: _341  and  _342
REMARK  142  A    between atoms: _342  and  _343
REMARK  143  A    between atoms: _348  and  _350
REMARK  144  A    between atoms: _350  and  _351
REMARK  145  A    between atoms: _350  and  _353
REMARK  146  A    between atoms: _353  and  _354
REMARK  147  A    between atoms: _360  and  _362
REMARK  148  A    between atoms: _362  and  _363
REMARK  149  A    between atoms: _362  and  _365
REMARK  150  A    between atoms: _365  and  _366
REMARK  151  A    between atoms: _376  and  _378
REMARK  152  A    between atoms: _378  and  _379
REMARK  153  A    between atoms: _378  and  _381
REMARK  154  A    between atoms: _381  and  _382
REMARK  155  A    between atoms: _385  and  _387
REMARK  156  A    between atoms: _387  and  _388
REMARK  157  A    between atoms: _391  and  _393
REMARK  158  A    between atoms: _393  and  _394
REMARK  159  A    between atoms: _393  and  _396
REMARK  160  A    between atoms: _396  and  _397
REMARK  161  A    between atoms: _400  and  _402
REMARK  162  A    between atoms: _402  and  _403
REMARK  163  A    between atoms: _402  and  _405
REMARK  164  A    between atoms: _405  and  _406
REMARK  165  A    between atoms: _409  and  _411
REMARK  166  A    between atoms: _411  and  _412
REMARK  167  A    between atoms: _414  and  _416
REMARK  168  A    between atoms: _416  and  _417
REMARK  169  A    between atoms: _416  and  _419
REMARK  170  A    between atoms: _419  and  _420
REMARK  171  A    between atoms: _423  and  _425
REMARK  172  A    between atoms: _425  and  _426
REMARK  173  A    between atoms: _425  and  _428
REMARK  174  A    between atoms: _428  and  _429
REMARK  175  A    between atoms: _432  and  _434
REMARK  176  A    between atoms: _434  and  _435
REMARK  177  A    between atoms: _434  and  _437
REMARK  178  A    between atoms: _437  and  _438
REMARK  179  A    between atoms: _441  and  _443
REMARK  180  A    between atoms: _443  and  _444
REMARK  181  A    between atoms: _443  and  _446
REMARK  182  A    between atoms: _446  and  _447
REMARK  183  A    between atoms: _450  and  _452
REMARK  184  A    between atoms: _452  and  _453
REMARK  185  A    between atoms: _452  and  _455
REMARK  186  A    between atoms: _455  and  _456
REMARK  187  A    between atoms: _459  and  _461
REMARK  188  A    between atoms: _461  and  _462
REMARK  189  A    between atoms: _465  and  _467
REMARK  190  A    between atoms: _467  and  _468
REMARK  191  A    between atoms: _470  and  _472
REMARK  192  A    between atoms: _472  and  _473
REMARK  193  A    between atoms: _475  and  _477
REMARK  194  A    between atoms: _477  and  _478
REMARK  195  A    between atoms: _477  and  _480
REMARK  196  A    between atoms: _480  and  _481
REMARK  197  A    between atoms: _486  and  _487
REMARK  198  A    between atoms: _490  and  _491
REMARK  199  A    between atoms: _496  and  _498
REMARK  200  A    between atoms: _498  and  _499
REMARK  201  A    between atoms: _498  and  _501
REMARK  202  A    between atoms: _501  and  _502
REMARK  203  A    between atoms: _504  and  _506
REMARK  204  A    between atoms: _506  and  _507
REMARK  205  A    between atoms: _506  and  _509
REMARK  206  A    between atoms: _509  and  _510
REMARK  207  A    between atoms: _513  and  _515
REMARK  208  A    between atoms: _515  and  _516
REMARK  209  A    between atoms: _518  and  _520
REMARK  210  A    between atoms: _520  and  _521
REMARK  211  A    between atoms: _520  and  _523
REMARK  212  A    between atoms: _523  and  _524
REMARK  213  A    between atoms: _524  and  _525
REMARK  214  A    between atoms: _530  and  _532
REMARK  215  A    between atoms: _532  and  _533
REMARK  216  A    between atoms: _532  and  _535
REMARK  217  A    between atoms: _535  and  _536
REMARK  218  A    between atoms: _538  and  _540
REMARK  219  A    between atoms: _540  and  _541
REMARK  220  A    between atoms: _540  and  _543
REMARK  221  A    between atoms: _543  and  _544
REMARK  222  A    between atoms: _549  and  _551
REMARK  223  A    between atoms: _551  and  _552
REMARK  224  A    between atoms: _551  and  _554
REMARK  225  A    between atoms: _554  and  _555
REMARK  226  A    between atoms: _557  and  _559
REMARK  227  A    between atoms: _559  and  _560
REMARK  228  A    between atoms: _559  and  _562
REMARK  229  A    between atoms: _562  and  _563
REMARK  230  A    between atoms: _566  and  _568
REMARK  231  A    between atoms: _568  and  _569
REMARK  232  A    between atoms: _568  and  _571
REMARK  233  A    between atoms: _571  and  _572
REMARK  234  A    between atoms: _578  and  _580
REMARK  235  A    between atoms: _580  and  _581
REMARK  236  A    between atoms: _580  and  _583
REMARK  237  A    between atoms: _583  and  _584
REMARK  238  A    between atoms: _586  and  _588
REMARK  239  A    between atoms: _588  and  _589
REMARK  240  A    between atoms: _588  and  _591
REMARK  241  A    between atoms: _591  and  _592
REMARK  242  A    between atoms: _595  and  _597
REMARK  243  A    between atoms: _597  and  _598
REMARK  244  A    between atoms: _597  and  _600
REMARK  245  A    between atoms: _600  and  _601
REMARK  246  A    between atoms: _607  and  _609
REMARK  247  A    between atoms: _609  and  _610
REMARK  248  A    between atoms: _612  and  _614
REMARK  249  A    between atoms: _614  and  _615
REMARK  250  A    between atoms: _614  and  _617
REMARK  251  A    between atoms: _617  and  _618
REMARK                            x       y       z     vdW  Elec       q    Type
REMARK                         _______ _______ _______ _____ _____    ______ ____
ROOT
ATOM      1  O   HOH     1      30.918  14.922  26.916  0.00  0.00    +0.000 OA
ENDROOT
TORSDOF 0
REMARK  Name = ../refined-set-2016/1bxq/1bxq_pocket.pdb
REMARK  251 active torsions:
REMARK  status: ('A' for Active; 'I' for Inactive)
REMARK    1  A    between atoms: _1  and  _3
REMARK    2  A    between atoms: _3  and  _4
REMARK    3  A    between atoms: _3  and  _6
REMARK    4  A    between atoms: _6  and  _7
REMARK    5  A    between atoms: _10  and  _12
REMARK    6  A    between atoms: _12  and  _13
REMARK    7  A    between atoms: _16  and  _18
REMARK    8  A    between atoms: _18  and  _19
REMARK    9  A    between atoms: _18  and  _21
REMARK   10  A    between atoms: _21  and  _22
REMARK   11  A    between atoms: _27  and  _29
REMARK   12  A    between atoms: _29  and  _30
REMARK   13  A    between atoms: _29  and  _32
REMARK   14  A    between atoms: _32  and  _33
REMARK   15  A    between atoms: _36  and  _38
REMARK   16  A    between atoms: _38  and  _39
REMARK   17  A    between atoms: _38  and  _41
REMARK   18  A    between atoms: _41  and  _42
REMARK   19  A    between atoms: _42  and  _43
REMARK   20  A    between atoms: _46  and  _48
REMARK   21  A    between atoms: _48  and  _49
REMARK   22  A    between atoms: _48  and  _51
REMARK   23  A    between atoms: _51  and  _52
REMARK   24  A    between atoms: _52  and  _53
REMARK   25  A    between atoms: _56  and  _58
REMARK   26  A    between atoms: _58  and  _59
REMARK   27  A    between atoms: _58  and  _61
REMARK   28  A    between atoms: _61  and  _62
REMARK   29  A    between atoms: _67  and  _68
REMARK   30  A    between atoms: _70  and  _72
REMARK   31  A    between atoms: _72  and  _73
REMARK   32  A    between atoms: _72  and  _75
REMARK   33  A    between atoms: _75  and  _76
REMARK   34  A    between atoms: _81  and  _83
REMARK   35  A    between atoms: _83  and  _84
REMARK   36  A    between atoms: _83  and  _86
REMARK   37  A    between atoms: _86  and  _87
REMARK   38  A    between atoms: _93  and  _95
REMARK   39  A    between atoms: _95  and  _96
REMARK   40  A    between atoms: _95  and  _98
REMARK   41  A    between atoms: _98  and  _99
REMARK   42  A    between atoms: _102  and  _104
REMARK   43  A    between atoms: _104  and  _105
REMARK   44  A    between atoms: _104  and  _107
REMARK   45  A    between atoms: _107  and  _108
REMARK   46  A    between atoms: _111  and  _113
REMARK   47  A    between atoms: _113  and  _114
REMARK   48  A    between atoms: _116  and  _118
REMARK   49  A    between atoms: _118  and  _119
REMARK   50  A    between atoms: _118  and  _121
REMARK   51  A    between atoms: _121  and  _122
REMARK   52  A    between atoms: _124  and  _126
REMARK   53  A    between atoms: _126  and  _127
REMARK   54  A    between atoms: _130  and  _132
REMARK   55  A    between atoms: _132  and  _133
REMARK   56  A    between atoms: _132  and  _135
REMARK   57  A    between atoms: _135  and  _136
REMARK   58  A    between atoms: _139  and  _141
REMARK   59  A    between atoms: _141  and  _142
REMARK   60  A    between atoms: _141  and  _144
REMARK   61  A    between atoms: _144  and  _145
REMARK   62  A    between atoms: _155  and  _157
REMARK   63  A    between atoms: _157  and  _158
REMARK   64  A    between atoms: _157  and  _160
REMARK   65  A    between atoms: _160  and  _161
REMARK   66  A    between atoms: _164  and  _166
REMARK   67  A    between atoms: _166  and  _167
REMARK   68  A    between atoms: _166  and  _169
REMARK   69  A    between atoms: _169  and  _170
REMARK   70  A    between atoms: _172  and  _174
REMARK   71  A    between atoms: _174  and  _175
REMARK   72  A    between atoms: _174  and  _177
REMARK   73  A    between atoms: _177  and  _178
REMARK   74  A    between atoms: _183  and  _184
REMARK   75  A    between atoms: _186  and  _188
REMARK   76  A    between atoms: _188  and  _189
REMARK   77  A    between atoms: _191  and  _193
REMARK   78  A    between atoms: _193  and  _194
REMARK   79  A    between atoms: _193  and  _196
REMARK   80  A    between atoms: _196  and  _197
REMARK   81  A    between atoms: _200  and  _202
REMARK   82  A    between atoms: _202  and  _203
REMARK   83  A    between atoms: _205  and  _207
REMARK   84  A    between atoms: _207  and  _208
REMARK   85  A    between atoms: _207  and  _210
REMARK   86  A    between atoms: _210  and  _211
REMARK   87  A    between atoms: _213  and  _215
REMARK   88  A    between atoms: _215  and  _216
REMARK   89  A    between atoms: _215  and  _218
REMARK   90  A    between atoms: _218  and  _219
REMARK   91  A    between atoms: _221  and  _223
REMARK   92  A    between atoms: _223  and  _224
REMARK   93  A    between atoms: _223  and  _226
REMARK   94  A    between atoms: _226  and  _227
REMARK   95  A    between atoms: _229  and  _231
REMARK   96  A    between atoms: _231  and  _232
REMARK   97  A    between atoms: _231  and  _234
REMARK   98  A    between atoms: _234  and  _235
REMARK   99  A    between atoms: _235  and  _236
REMARK  100  A    between atoms: _241  and  _243
REMARK  101  A    between atoms: _243  and  _244
REMARK  102  A    between atoms: _243  and  _246
REMARK  103  A    between atoms: _246  and  _247
REMARK  104  A    between atoms: _253  and  _255
REMARK  105  A    between atoms: _255  and  _256
REMARK  106  A    between atoms: _255  and  _258
REMARK  107  A    between atoms: _258  and  _259
REMARK  108  A    between atoms: _262  and  _264
REMARK  109  A    between atoms: _264  and  _265
REMARK  110  A    between atoms: _264  and  _267
REMARK  111  A    between atoms: _267  and  _268
REMARK  112  A    between atoms: _273  and  _275
REMARK  113  A    between atoms: _275  and  _276
REMARK  114  A    between atoms: _275  and  _278
REMARK  115  A    between atoms: _278  and  _279
REMARK  116  A    between atoms: _284  and  _286
REMARK  117  A    between atoms: _286  and  _287
REMARK  118  A    between atoms: _289  and  _291
REMARK  119  A    between atoms: _291  and  _292
REMARK  120  A    between atoms: _291  and  _294
REMARK  121  A    between atoms: _294  and  _295
REMARK  122  A    between atoms: _298  and  _300
REMARK  123  A    between atoms: _300  and  _301
REMARK  124  A    between atoms: _300  and  _303
REMARK  125  A    between atoms: _303  and  _304
REMARK  126  A    between atoms: _307  and  _309
REMARK  127  A    between atoms: _309  and  _310
REMARK  128  A    between atoms: _312  and  _314
REMARK  129  A    between atoms: _314  and  _315
REMARK  130  A    between atoms: _314  and  _317
REMARK  131  A    between atoms: _317  and  _318
REMARK  132  A    between atoms: _321  and  _323
REMARK  133  A    between atoms: _323  and  _324
REMARK  134  A    between atoms: _327  and  _329
REMARK  135  A    between atoms: _329  and  _330
REMARK  136  A    between atoms: _329  and  _332
REMARK  137  A    between atoms: _332  and  _333
REMARK  138  A    between atoms: _336  and  _338
REMARK  139  A    between atoms: _338  and  _339
REMARK  140  A    between atoms: _338  and  _341
REMARK  141  A    between atoms: _341  and  _342
REMARK  142  A    between atoms: _342  and  _343
REMARK  143  A    between atoms: _348  and  _350
REMARK  144  A    between atoms: _350  and  _351
REMARK  145  A    between atoms: _350  and  _353
REMARK  146  A    between atoms: _353  and  _354
REMARK  147  A    between atoms: _360  and  _362
REMARK  148  A    between atoms: _362  and  _363
REMARK  149  A    between atoms: _362  and  _365
REMARK  150  A    between atoms: _365  and  _366
REMARK  151  A    between atoms: _376  and  _378
REMARK  152  A    between atoms: _378  and  _379
REMARK  153  A    between atoms: _378  and  _381
REMARK  154  A    between atoms: _381  and  _382
REMARK  155  A    between atoms: _385  and  _387
REMARK  156  A    between atoms: _387  and  _388
REMARK  157  A    between atoms: _391  and  _393
REMARK  158  A    between atoms: _393  and  _394
REMARK  159  A    between atoms: _393  and  _396
REMARK  160  A    between atoms: _396  and  _397
REMARK  161  A    between atoms: _400  and  _402
REMARK  162  A    between atoms: _402  and  _403
REMARK  163  A    between atoms: _402  and  _405
REMARK  164  A    between atoms: _405  and  _406
REMARK  165  A    between atoms: _409  and  _411
REMARK  166  A    between atoms: _411  and  _412
REMARK  167  A    between atoms: _414  and  _416
REMARK  168  A    between atoms: _416  and  _417
REMARK  169  A    between atoms: _416  and  _419
REMARK  170  A    between atoms: _419  and  _420
REMARK  171  A    between atoms: _423  and  _425
REMARK  172  A    between atoms: _425  and  _426
REMARK  173  A    between atoms: _425  and  _428
REMARK  174  A    between atoms: _428  and  _429
REMARK  175  A    between atoms: _432  and  _434
REMARK  176  A    between atoms: _434  and  _435
REMARK  177  A    between atoms: _434  and  _437
REMARK  178  A    between atoms: _437  and  _438
REMARK  179  A    between atoms: _441  and  _443
REMARK  180  A    between atoms: _443  and  _444
REMARK  181  A    between atoms: _443  and  _446
REMARK  182  A    between atoms: _446  and  _447
REMARK  183  A    between atoms: _450  and  _452
REMARK  184  A    between atoms: _452  and  _453
REMARK  185  A    between atoms: _452  and  _455
REMARK  186  A    between atoms: _455  and  _456
REMARK  187  A    between atoms: _459  and  _461
REMARK  188  A    between atoms: _461  and  _462
REMARK  189  A    between atoms: _465  and  _467
REMARK  190  A    between atoms: _467  and  _468
REMARK  191  A    between atoms: _470  and  _472
REMARK  192  A    between atoms: _472  and  _473
REMARK  193  A    between atoms: _475  and  _477
REMARK  194  A    between atoms: _477  and  _478
REMARK  195  A    between atoms: _477  and  _480
REMARK  196  A    between atoms: _480  and  _481
REMARK  197  A    between atoms: _486  and  _487
REMARK  198  A    between atoms: _490  and  _491
REMARK  199  A    between atoms: _496  and  _498
REMARK  200  A    between atoms: _498  and  _499
REMARK  201  A    between atoms: _498  and  _501
REMARK  202  A    between atoms: _501  and  _502
REMARK  203  A    between atoms: _504  and  _506
REMARK  204  A    between atoms: _506  and  _507
REMARK  205  A    between atoms: _506  and  _509
REMARK  206  A    between atoms: _509  and  _510
REMARK  207  A    between atoms: _513  and  _515
REMARK  208  A    between atoms: _515  and  _516
REMARK  209  A    between atoms: _518  and  _520
REMARK  210  A    between atoms: _520  and  _521
REMARK  211  A    between atoms: _520  and  _523
REMARK  212  A    between atoms: _523  and  _524
REMARK  213  A    between atoms: _524  and  _525
REMARK  214  A    between atoms: _530  and  _532
REMARK  215  A    between atoms: _532  and  _533
REMARK  216  A    between atoms: _532  and  _535
REMARK  217  A    between atoms: _535  and  _536
REMARK  218  A    between atoms: _538  and  _540
REMARK  219  A    between atoms: _540  and  _541
REMARK  220  A    between atoms: _540  and  _543
REMARK  221  A    between atoms: _543  and  _544
REMARK  222  A    between atoms: _549  and  _551
REMARK  223  A    between atoms: _551  and  _552
REMARK  224  A    between atoms: _551  and  _554
REMARK  225  A    between atoms: _554  and  _555
REMARK  226  A    between atoms: _557  and  _559
REMARK  227  A    between atoms: _559  and  _560
REMARK  228  A    between atoms: _559  and  _562
REMARK  229  A    between atoms: _562  and  _563
REMARK  230  A    between atoms: _566  and  _568
REMARK  231  A    between atoms: _568  and  _569
REMARK  232  A    between atoms: _568  and  _571
REMARK  233  A    between atoms: _571  and  _572
REMARK  234  A    between atoms: _578  and  _580
REMARK  235  A    between atoms: _580  and  _581
REMARK  236  A    between atoms: _580  and  _583
REMARK  237  A    between atoms: _583  and  _584
REMARK  238  A    between atoms: _586  and  _588
REMARK  239  A    between atoms: _588  and  _589
REMARK  240  A    between atoms: _588  and  _591
REMARK  241  A    between atoms: _591  and  _592
REMARK  242  A    between atoms: _595  and  _597
REMARK  243  A    between atoms: _597  and  _598
REMARK  244  A    between atoms: _597  and  _600
REMARK  245  A    between atoms: _600  and  _601
REMARK  246  A    between atoms: _607  and  _609
REMARK  247  A    between atoms: _609  and  _610
REMARK  248  A    between atoms: _612  and  _614
REMARK  249  A    between atoms: _614  and  _615
REMARK  250  A    between atoms: _614  and  _617
REMARK  251  A    between atoms: _617  and  _618
REMARK                            x       y       z     vdW  Elec       q    Type
REMARK                         _______ _______ _______ _____ _____    ______ ____
ROOT
ATOM      1  O   HOH     1      22.139   7.026  29.673  0.00  0.00    +0.000 OA
ENDROOT
TORSDOF 0
REMARK  Name = ../refined-set-2016/1bxq/1bxq_pocket.pdb
REMARK  251 active torsions:
REMARK  status: ('A' for Active; 'I' for Inactive)
REMARK    1  A    between atoms: _1  and  _3
REMARK    2  A    between atoms: _3  and  _4
REMARK    3  A    between atoms: _3  and  _6
REMARK    4  A    between atoms: _6  and  _7
REMARK    5  A    between atoms: _10  and  _12
REMARK    6  A    between atoms: _12  and  _13
REMARK    7  A    between atoms: _16  and  _18
REMARK    8  A    between atoms: _18  and  _19
REMARK    9  A    between atoms: _18  and  _21
REMARK   10  A    between atoms: _21  and  _22
REMARK   11  A    between atoms: _27  and  _29
REMARK   12  A    between atoms: _29  and  _30
REMARK   13  A    between atoms: _29  and  _32
REMARK   14  A    between atoms: _32  and  _33
REMARK   15  A    between atoms: _36  and  _38
REMARK   16  A    between atoms: _38  and  _39
REMARK   17  A    between atoms: _38  and  _41
REMARK   18  A    between atoms: _41  and  _42
REMARK   19  A    between atoms: _42  and  _43
REMARK   20  A    between atoms: _46  and  _48
REMARK   21  A    between atoms: _48  and  _49
REMARK   22  A    between atoms: _48  and  _51
REMARK   23  A    between atoms: _51  and  _52
REMARK   24  A    between atoms: _52  and  _53
REMARK   25  A    between atoms: _56  and  _58
REMARK   26  A    between atoms: _58  and  _59
REMARK   27  A    between atoms: _58  and  _61
REMARK   28  A    between atoms: _61  and  _62
REMARK   29  A    between atoms: _67  and  _68
REMARK   30  A    between atoms: _70  and  _72
REMARK   31  A    between atoms: _72  and  _73
REMARK   32  A    between atoms: _72  and  _75
REMARK   33  A    between atoms: _75  and  _76
REMARK   34  A    between atoms: _81  and  _83
REMARK   35  A    between atoms: _83  and  _84
REMARK   36  A    between atoms: _83  and  _86
REMARK   37  A    between atoms: _86  and  _87
REMARK   38  A    between atoms: _93  and  _95
REMARK   39  A    between atoms: _95  and  _96
REMARK   40  A    between atoms: _95  and  _98
REMARK   41  A    between atoms: _98  and  _99
REMARK   42  A    between atoms: _102  and  _104
REMARK   43  A    between atoms: _104  and  _105
REMARK   44  A    between atoms: _104  and  _107
REMARK   45  A    between atoms: _107  and  _108
REMARK   46  A    between atoms: _111  and  _113
REMARK   47  A    between atoms: _113  and  _114
REMARK   48  A    between atoms: _116  and  _118
REMARK   49  A    between atoms: _118  and  _119
REMARK   50  A    between atoms: _118  and  _121
REMARK   51  A    between atoms: _121  and  _122
REMARK   52  A    between atoms: _124  and  _126
REMARK   53  A    between atoms: _126  and  _127
REMARK   54  A    between atoms: _130  and  _132
REMARK   55  A    between atoms: _132  and  _133
REMARK   56  A    between atoms: _132  and  _135
REMARK   57  A    between atoms: _135  and  _136
REMARK   58  A    between atoms: _139  and  _141
REMARK   59  A    between atoms: _141  and  _142
REMARK   60  A    between atoms: _141  and  _144
REMARK   61  A    between atoms: _144  and  _145
REMARK   62  A    between atoms: _155  and  _157
REMARK   63  A    between atoms: _157  and  _158
REMARK   64  A    between atoms: _157  and  _160
REMARK   65  A    between atoms: _160  and  _161
REMARK   66  A    between atoms: _164  and  _166
REMARK   67  A    between atoms: _166  and  _167
REMARK   68  A    between atoms: _166  and  _169
REMARK   69  A    between atoms: _169  and  _170
REMARK   70  A    between atoms: _172  and  _174
REMARK   71  A    between atoms: _174  and  _175
REMARK   72  A    between atoms: _174  and  _177
REMARK   73  A    between atoms: _177  and  _178
REMARK   74  A    between atoms: _183  and  _184
REMARK   75  A    between atoms: _186  and  _188
REMARK   76  A    between atoms: _188  and  _189
REMARK   77  A    between atoms: _191  and  _193
REMARK   78  A    between atoms: _193  and  _194
REMARK   79  A    between atoms: _193  and  _196
REMARK   80  A    between atoms: _196  and  _197
REMARK   81  A    between atoms: _200  and  _202
REMARK   82  A    between atoms: _202  and  _203
REMARK   83  A    between atoms: _205  and  _207
REMARK   84  A    between atoms: _207  and  _208
REMARK   85  A    between atoms: _207  and  _210
REMARK   86  A    between atoms: _210  and  _211
REMARK   87  A    between atoms: _213  and  _215
REMARK   88  A    between atoms: _215  and  _216
REMARK   89  A    between atoms: _215  and  _218
REMARK   90  A    between atoms: _218  and  _219
REMARK   91  A    between atoms: _221  and  _223
REMARK   92  A    between atoms: _223  and  _224
REMARK   93  A    between atoms: _223  and  _226
REMARK   94  A    between atoms: _226  and  _227
REMARK   95  A    between atoms: _229  and  _231
REMARK   96  A    between atoms: _231  and  _232
REMARK   97  A    between atoms: _231  and  _234
REMARK   98  A    between atoms: _234  and  _235
REMARK   99  A    between atoms: _235  and  _236
REMARK  100  A    between atoms: _241  and  _243
REMARK  101  A    between atoms: _243  and  _244
REMARK  102  A    between atoms: _243  and  _246
REMARK  103  A    between atoms: _246  and  _247
REMARK  104  A    between atoms: _253  and  _255
REMARK  105  A    between atoms: _255  and  _256
REMARK  106  A    between atoms: _255  and  _258
REMARK  107  A    between atoms: _258  and  _259
REMARK  108  A    between atoms: _262  and  _264
REMARK  109  A    between atoms: _264  and  _265
REMARK  110  A    between atoms: _264  and  _267
REMARK  111  A    between atoms: _267  and  _268
REMARK  112  A    between atoms: _273  and  _275
REMARK  113  A    between atoms: _275  and  _276
REMARK  114  A    between atoms: _275  and  _278
REMARK  115  A    between atoms: _278  and  _279
REMARK  116  A    between atoms: _284  and  _286
REMARK  117  A    between atoms: _286  and  _287
REMARK  118  A    between atoms: _289  and  _291
REMARK  119  A    between atoms: _291  and  _292
REMARK  120  A    between atoms: _291  and  _294
REMARK  121  A    between atoms: _294  and  _295
REMARK  122  A    between atoms: _298  and  _300
REMARK  123  A    between atoms: _300  and  _301
REMARK  124  A    between atoms: _300  and  _303
REMARK  125  A    between atoms: _303  and  _304
REMARK  126  A    between atoms: _307  and  _309
REMARK  127  A    between atoms: _309  and  _310
REMARK  128  A    between atoms: _312  and  _314
REMARK  129  A    between atoms: _314  and  _315
REMARK  130  A    between atoms: _314  and  _317
REMARK  131  A    between atoms: _317  and  _318
REMARK  132  A    between atoms: _321  and  _323
REMARK  133  A    between atoms: _323  and  _324
REMARK  134  A    between atoms: _327  and  _329
REMARK  135  A    between atoms: _329  and  _330
REMARK  136  A    between atoms: _329  and  _332
REMARK  137  A    between atoms: _332  and  _333
REMARK  138  A    between atoms: _336  and  _338
REMARK  139  A    between atoms: _338  and  _339
REMARK  140  A    between atoms: _338  and  _341
REMARK  141  A    between atoms: _341  and  _342
REMARK  142  A    between atoms: _342  and  _343
REMARK  143  A    between atoms: _348  and  _350
REMARK  144  A    between atoms: _350  and  _351
REMARK  145  A    between atoms: _350  and  _353
REMARK  146  A    between atoms: _353  and  _354
REMARK  147  A    between atoms: _360  and  _362
REMARK  148  A    between atoms: _362  and  _363
REMARK  149  A    between atoms: _362  and  _365
REMARK  150  A    between atoms: _365  and  _366
REMARK  151  A    between atoms: _376  and  _378
REMARK  152  A    between atoms: _378  and  _379
REMARK  153  A    between atoms: _378  and  _381
REMARK  154  A    between atoms: _381  and  _382
REMARK  155  A    between atoms: _385  and  _387
REMARK  156  A    between atoms: _387  and  _388
REMARK  157  A    between atoms: _391  and  _393
REMARK  158  A    between atoms: _393  and  _394
REMARK  159  A    between atoms: _393  and  _396
REMARK  160  A    between atoms: _396  and  _397
REMARK  161  A    between atoms: _400  and  _402
REMARK  162  A    between atoms: _402  and  _403
REMARK  163  A    between atoms: _402  and  _405
REMARK  164  A    between atoms: _405  and  _406
REMARK  165  A    between atoms: _409  and  _411
REMARK  166  A    between atoms: _411  and  _412
REMARK  167  A    between atoms: _414  and  _416
REMARK  168  A    between atoms: _416  and  _417
REMARK  169  A    between atoms: _416  and  _419
REMARK  170  A    between atoms: _419  and  _420
REMARK  171  A    between atoms: _423  and  _425
REMARK  172  A    between atoms: _425  and  _426
REMARK  173  A    between atoms: _425  and  _428
REMARK  174  A    between atoms: _428  and  _429
REMARK  175  A    between atoms: _432  and  _434
REMARK  176  A    between atoms: _434  and  _435
REMARK  177  A    between atoms: _434  and  _437
REMARK  178  A    between atoms: _437  and  _438
REMARK  179  A    between atoms: _441  and  _443
REMARK  180  A    between atoms: _443  and  _444
REMARK  181  A    between atoms: _443  and  _446
REMARK  182  A    between atoms: _446  and  _447
REMARK  183  A    between atoms: _450  and  _452
REMARK  184  A    between atoms: _452  and  _453
REMARK  185  A    between atoms: _452  and  _455
REMARK  186  A    between atoms: _455  and  _456
REMARK  187  A    between atoms: _459  and  _461
REMARK  188  A    between atoms: _461  and  _462
REMARK  189  A    between atoms: _465  and  _467
REMARK  190  A    between atoms: _467  and  _468
REMARK  191  A    between atoms: _470  and  _472
REMARK  192  A    between atoms: _472  and  _473
REMARK  193  A    between atoms: _475  and  _477
REMARK  194  A    between atoms: _477  and  _478
REMARK  195  A    between atoms: _477  and  _480
REMARK  196  A    between atoms: _480  and  _481
REMARK  197  A    between atoms: _486  and  _487
REMARK  198  A    between atoms: _490  and  _491
REMARK  199  A    between atoms: _496  and  _498
REMARK  200  A    between atoms: _498  and  _499
REMARK  201  A    between atoms: _498  and  _501
REMARK  202  A    between atoms: _501  and  _502
REMARK  203  A    between atoms: _504  and  _506
REMARK  204  A    between atoms: _506  and  _507
REMARK  205  A    between atoms: _506  and  _509
REMARK  206  A    between atoms: _509  and  _510
REMARK  207  A    between atoms: _513  and  _515
REMARK  208  A    between atoms: _515  and  _516
REMARK  209  A    between atoms: _518  and  _520
REMARK  210  A    between atoms: _520  and  _521
REMARK  211  A    between atoms: _520  and  _523
REMARK  212  A    between atoms: _523  and  _524
REMARK  213  A    between atoms: _524  and  _525
REMARK  214  A    between atoms: _530  and  _532
REMARK  215  A    between atoms: _532  and  _533
REMARK  216  A    between atoms: _532  and  _535
REMARK  217  A    between atoms: _535  and  _536
REMARK  218  A    between atoms: _538  and  _540
REMARK  219  A    between atoms: _540  and  _541
REMARK  220  A    between atoms: _540  and  _543
REMARK  221  A    between atoms: _543  and  _544
REMARK  222  A    between atoms: _549  and  _551
REMARK  223  A    between atoms: _551  and  _552
REMARK  224  A    between atoms: _551  and  _554
REMARK  225  A    between atoms: _554  and  _555
REMARK  226  A    between atoms: _557  and  _559
REMARK  227  A    between atoms: _559  and  _560
REMARK  228  A    between atoms: _559  and  _562
REMARK  229  A    between atoms: _562  and  _563
REMARK  230  A    between atoms: _566  and  _568
REMARK  231  A    between atoms: _568  and  _569
REMARK  232  A    between atoms: _568  and  _571
REMARK  233  A    between atoms: _571  and  _572
REMARK  234  A    between atoms: _578  and  _580
REMARK  235  A    between atoms: _580  and  _581
REMARK  236  A    between atoms: _580  and  _583
REMARK  237  A    between atoms: _583  and  _584
REMARK  238  A    between atoms: _586  and  _588
REMARK  239  A    between atoms: _588  and  _589
REMARK  240  A    between atoms: _588  and  _591
REMARK  241  A    between atoms: _591  and  _592
REMARK  242  A    between atoms: _595  and  _597
REMARK  243  A    between atoms: _597  and  _598
REMARK  244  A    between atoms: _597  and  _600
REMARK  245  A    between atoms: _600  and  _601
REMARK  246  A    between atoms: _607  and  _609
REMARK  247  A    between atoms: _609  and  _610
REMARK  248  A    between atoms: _612  and  _614
REMARK  249  A    between atoms: _614  and  _615
REMARK  250  A    between atoms: _614  and  _617
REMARK  251  A    between atoms: _617  and  _618
REMARK                            x       y       z     vdW  Elec       q    Type
REMARK                         _______ _______ _______ _____ _____    ______ ____
ROOT
ATOM      1  O   HOH     1      28.014  11.908  24.732  0.00  0.00    +0.000 OA
ENDROOT
TORSDOF 0
REMARK  Name = ../refined-set-2016/1bxq/1bxq_pocket.pdb
REMARK  251 active torsions:
REMARK  status: ('A' for Active; 'I' for Inactive)
REMARK    1  A    between atoms: _1  and  _3
REMARK    2  A    between atoms: _3  and  _4
REMARK    3  A    between atoms: _3  and  _6
REMARK    4  A    between atoms: _6  and  _7
REMARK    5  A    between atoms: _10  and  _12
REMARK    6  A    between atoms: _12  and  _13
REMARK    7  A    between atoms: _16  and  _18
REMARK    8  A    between atoms: _18  and  _19
REMARK    9  A    between atoms: _18  and  _21
REMARK   10  A    between atoms: _21  and  _22
REMARK   11  A    between atoms: _27  and  _29
REMARK   12  A    between atoms: _29  and  _30
REMARK   13  A    between atoms: _29  and  _32
REMARK   14  A    between atoms: _32  and  _33
REMARK   15  A    between atoms: _36  and  _38
REMARK   16  A    between atoms: _38  and  _39
REMARK   17  A    between atoms: _38  and  _41
REMARK   18  A    between atoms: _41  and  _42
REMARK   19  A    between atoms: _42  and  _43
REMARK   20  A    between atoms: _46  and  _48
REMARK   21  A    between atoms: _48  and  _49
REMARK   22  A    between atoms: _48  and  _51
REMARK   23  A    between atoms: _51  and  _52
REMARK   24  A    between atoms: _52  and  _53
REMARK   25  A    between atoms: _56  and  _58
REMARK   26  A    between atoms: _58  and  _59
REMARK   27  A    between atoms: _58  and  _61
REMARK   28  A    between atoms: _61  and  _62
REMARK   29  A    between atoms: _67  and  _68
REMARK   30  A    between atoms: _70  and  _72
REMARK   31  A    between atoms: _72  and  _73
REMARK   32  A    between atoms: _72  and  _75
REMARK   33  A    between atoms: _75  and  _76
REMARK   34  A    between atoms: _81  and  _83
REMARK   35  A    between atoms: _83  and  _84
REMARK   36  A    between atoms: _83  and  _86
REMARK   37  A    between atoms: _86  and  _87
REMARK   38  A    between atoms: _93  and  _95
REMARK   39  A    between atoms: _95  and  _96
REMARK   40  A    between atoms: _95  and  _98
REMARK   41  A    between atoms: _98  and  _99
REMARK   42  A    between atoms: _102  and  _104
REMARK   43  A    between atoms: _104  and  _105
REMARK   44  A    between atoms: _104  and  _107
REMARK   45  A    between atoms: _107  and  _108
REMARK   46  A    between atoms: _111  and  _113
REMARK   47  A    between atoms: _113  and  _114
REMARK   48  A    between atoms: _116  and  _118
REMARK   49  A    between atoms: _118  and  _119
REMARK   50  A    between atoms: _118  and  _121
REMARK   51  A    between atoms: _121  and  _122
REMARK   52  A    between atoms: _124  and  _126
REMARK   53  A    between atoms: _126  and  _127
REMARK   54  A    between atoms: _130  and  _132
REMARK   55  A    between atoms: _132  and  _133
REMARK   56  A    between atoms: _132  and  _135
REMARK   57  A    between atoms: _135  and  _136
REMARK   58  A    between atoms: _139  and  _141
REMARK   59  A    between atoms: _141  and  _142
REMARK   60  A    between atoms: _141  and  _144
REMARK   61  A    between atoms: _144  and  _145
REMARK   62  A    between atoms: _155  and  _157
REMARK   63  A    between atoms: _157  and  _158
REMARK   64  A    between atoms: _157  and  _160
REMARK   65  A    between atoms: _160  and  _161
REMARK   66  A    between atoms: _164  and  _166
REMARK   67  A    between atoms: _166  and  _167
REMARK   68  A    between atoms: _166  and  _169
REMARK   69  A    between atoms: _169  and  _170
REMARK   70  A    between atoms: _172  and  _174
REMARK   71  A    between atoms: _174  and  _175
REMARK   72  A    between atoms: _174  and  _177
REMARK   73  A    between atoms: _177  and  _178
REMARK   74  A    between atoms: _183  and  _184
REMARK   75  A    between atoms: _186  and  _188
REMARK   76  A    between atoms: _188  and  _189
REMARK   77  A    between atoms: _191  and  _193
REMARK   78  A    between atoms: _193  and  _194
REMARK   79  A    between atoms: _193  and  _196
REMARK   80  A    between atoms: _196  and  _197
REMARK   81  A    between atoms: _200  and  _202
REMARK   82  A    between atoms: _202  and  _203
REMARK   83  A    between atoms: _205  and  _207
REMARK   84  A    between atoms: _207  and  _208
REMARK   85  A    between atoms: _207  and  _210
REMARK   86  A    between atoms: _210  and  _211
REMARK   87  A    between atoms: _213  and  _215
REMARK   88  A    between atoms: _215  and  _216
REMARK   89  A    between atoms: _215  and  _218
REMARK   90  A    between atoms: _218  and  _219
REMARK   91  A    between atoms: _221  and  _223
REMARK   92  A    between atoms: _223  and  _224
REMARK   93  A    between atoms: _223  and  _226
REMARK   94  A    between atoms: _226  and  _227
REMARK   95  A    between atoms: _229  and  _231
REMARK   96  A    between atoms: _231  and  _232
REMARK   97  A    between atoms: _231  and  _234
REMARK   98  A    between atoms: _234  and  _235
REMARK   99  A    between atoms: _235  and  _236
REMARK  100  A    between atoms: _241  and  _243
REMARK  101  A    between atoms: _243  and  _244
REMARK  102  A    between atoms: _243  and  _246
REMARK  103  A    between atoms: _246  and  _247
REMARK  104  A    between atoms: _253  and  _255
REMARK  105  A    between atoms: _255  and  _256
REMARK  106  A    between atoms: _255  and  _258
REMARK  107  A    between atoms: _258  and  _259
REMARK  108  A    between atoms: _262  and  _264
REMARK  109  A    between atoms: _264  and  _265
REMARK  110  A    between atoms: _264  and  _267
REMARK  111  A    between atoms: _267  and  _268
REMARK  112  A    between atoms: _273  and  _275
REMARK  113  A    between atoms: _275  and  _276
REMARK  114  A    between atoms: _275  and  _278
REMARK  115  A    between atoms: _278  and  _279
REMARK  116  A    between atoms: _284  and  _286
REMARK  117  A    between atoms: _286  and  _287
REMARK  118  A    between atoms: _289  and  _291
REMARK  119  A    between atoms: _291  and  _292
REMARK  120  A    between atoms: _291  and  _294
REMARK  121  A    between atoms: _294  and  _295
REMARK  122  A    between atoms: _298  and  _300
REMARK  123  A    between atoms: _300  and  _301
REMARK  124  A    between atoms: _300  and  _303
REMARK  125  A    between atoms: _303  and  _304
REMARK  126  A    between atoms: _307  and  _309
REMARK  127  A    between atoms: _309  and  _310
REMARK  128  A    between atoms: _312  and  _314
REMARK  129  A    between atoms: _314  and  _315
REMARK  130  A    between atoms: _314  and  _317
REMARK  131  A    between atoms: _317  and  _318
REMARK  132  A    between atoms: _321  and  _323
REMARK  133  A    between atoms: _323  and  _324
REMARK  134  A    between atoms: _327  and  _329
REMARK  135  A    between atoms: _329  and  _330
REMARK  136  A    between atoms: _329  and  _332
REMARK  137  A    between atoms: _332  and  _333
REMARK  138  A    between atoms: _336  and  _338
REMARK  139  A    between atoms: _338  and  _339
REMARK  140  A    between atoms: _338  and  _341
REMARK  141  A    between atoms: _341  and  _342
REMARK  142  A    between atoms: _342  and  _343
REMARK  143  A    between atoms: _348  and  _350
REMARK  144  A    between atoms: _350  and  _351
REMARK  145  A    between atoms: _350  and  _353
REMARK  146  A    between atoms: _353  and  _354
REMARK  147  A    between atoms: _360  and  _362
REMARK  148  A    between atoms: _362  and  _363
REMARK  149  A    between atoms: _362  and  _365
REMARK  150  A    between atoms: _365  and  _366
REMARK  151  A    between atoms: _376  and  _378
REMARK  152  A    between atoms: _378  and  _379
REMARK  153  A    between atoms: _378  and  _381
REMARK  154  A    between atoms: _381  and  _382
REMARK  155  A    between atoms: _385  and  _387
REMARK  156  A    between atoms: _387  and  _388
REMARK  157  A    between atoms: _391  and  _393
REMARK  158  A    between atoms: _393  and  _394
REMARK  159  A    between atoms: _393  and  _396
REMARK  160  A    between atoms: _396  and  _397
REMARK  161  A    between atoms: _400  and  _402
REMARK  162  A    between atoms: _402  and  _403
REMARK  163  A    between atoms: _402  and  _405
REMARK  164  A    between atoms: _405  and  _406
REMARK  165  A    between atoms: _409  and  _411
REMARK  166  A    between atoms: _411  and  _412
REMARK  167  A    between atoms: _414  and  _416
REMARK  168  A    between atoms: _416  and  _417
REMARK  169  A    between atoms: _416  and  _419
REMARK  170  A    between atoms: _419  and  _420
REMARK  171  A    between atoms: _423  and  _425
REMARK  172  A    between atoms: _425  and  _426
REMARK  173  A    between atoms: _425  and  _428
REMARK  174  A    between atoms: _428  and  _429
REMARK  175  A    between atoms: _432  and  _434
REMARK  176  A    between atoms: _434  and  _435
REMARK  177  A    between atoms: _434  and  _437
REMARK  178  A    between atoms: _437  and  _438
REMARK  179  A    between atoms: _441  and  _443
REMARK  180  A    between atoms: _443  and  _444
REMARK  181  A    between atoms: _443  and  _446
REMARK  182  A    between atoms: _446  and  _447
REMARK  183  A    between atoms: _450  and  _452
REMARK  184  A    between atoms: _452  and  _453
REMARK  185  A    between atoms: _452  and  _455
REMARK  186  A    between atoms: _455  and  _456
REMARK  187  A    between atoms: _459  and  _461
REMARK  188  A    between atoms: _461  and  _462
REMARK  189  A    between atoms: _465  and  _467
REMARK  190  A    between atoms: _467  and  _468
REMARK  191  A    between atoms: _470  and  _472
REMARK  192  A    between atoms: _472  and  _473
REMARK  193  A    between atoms: _475  and  _477
REMARK  194  A    between atoms: _477  and  _478
REMARK  195  A    between atoms: _477  and  _480
REMARK  196  A    between atoms: _480  and  _481
REMARK  197  A    between atoms: _486  and  _487
REMARK  198  A    between atoms: _490  and  _491
REMARK  199  A    between atoms: _496  and  _498
REMARK  200  A    between atoms: _498  and  _499
REMARK  201  A    between atoms: _498  and  _501
REMARK  202  A    between atoms: _501  and  _502
REMARK  203  A    between atoms: _504  and  _506
REMARK  204  A    between atoms: _506  and  _507
REMARK  205  A    between atoms: _506  and  _509
REMARK  206  A    between atoms: _509  and  _510
REMARK  207  A    between atoms: _513  and  _515
REMARK  208  A    between atoms: _515  and  _516
REMARK  209  A    between atoms: _518  and  _520
REMARK  210  A    between atoms: _520  and  _521
REMARK  211  A    between atoms: _520  and  _523
REMARK  212  A    between atoms: _523  and  _524
REMARK  213  A    between atoms: _524  and  _525
REMARK  214  A    between atoms: _530  and  _532
REMARK  215  A    between atoms: _532  and  _533
REMARK  216  A    between atoms: _532  and  _535
REMARK  217  A    between atoms: _535  and  _536
REMARK  218  A    between atoms: _538  and  _540
REMARK  219  A    between atoms: _540  and  _541
REMARK  220  A    between atoms: _540  and  _543
REMARK  221  A    between atoms: _543  and  _544
REMARK  222  A    between atoms: _549  and  _551
REMARK  223  A    between atoms: _551  and  _552
REMARK  224  A    between atoms: _551  and  _554
REMARK  225  A    between atoms: _554  and  _555
REMARK  226  A    between atoms: _557  and  _559
REMARK  227  A    between atoms: _559  and  _560
REMARK  228  A    between atoms: _559  and  _562
REMARK  229  A    between atoms: _562  and  _563
REMARK  230  A    between atoms: _566  and  _568
REMARK  231  A    between atoms: _568  and  _569
REMARK  232  A    between atoms: _568  and  _571
REMARK  233  A    between atoms: _571  and  _572
REMARK  234  A    between atoms: _578  and  _580
REMARK  235  A    between atoms: _580  and  _581
REMARK  236  A    between atoms: _580  and  _583
REMARK  237  A    between atoms: _583  and  _584
REMARK  238  A    between atoms: _586  and  _588
REMARK  239  A    between atoms: _588  and  _589
REMARK  240  A    between atoms: _588  and  _591
REMARK  241  A    between atoms: _591  and  _592
REMARK  242  A    between atoms: _595  and  _597
REMARK  243  A    between atoms: _597  and  _598
REMARK  244  A    between atoms: _597  and  _600
REMARK  245  A    between atoms: _600  and  _601
REMARK  246  A    between atoms: _607  and  _609
REMARK  247  A    between atoms: _609  and  _610
REMARK  248  A    between atoms: _612  and  _614
REMARK  249  A    between atoms: _614  and  _615
REMARK  250  A    between atoms: _614  and  _617
REMARK  251  A    between atoms: _617  and  _618
REMARK                            x       y       z     vdW  Elec       q    Type
REMARK                         _______ _______ _______ _____ _____    ______ ____
ROOT
ATOM      1  O   HOH     1      30.043  10.951  26.988  0.00  0.00    +0.000 OA
ENDROOT
TORSDOF 0
REMARK  Name = ../refined-set-2016/1bxq/1bxq_pocket.pdb
REMARK  251 active torsions:
REMARK  status: ('A' for Active; 'I' for Inactive)
REMARK    1  A    between atoms: _1  and  _3
REMARK    2  A    between atoms: _3  and  _4
REMARK    3  A    between atoms: _3  and  _6
REMARK    4  A    between atoms: _6  and  _7
REMARK    5  A    between atoms: _10  and  _12
REMARK    6  A    between atoms: _12  and  _13
REMARK    7  A    between atoms: _16  and  _18
REMARK    8  A    between atoms: _18  and  _19
REMARK    9  A    between atoms: _18  and  _21
REMARK   10  A    between atoms: _21  and  _22
REMARK   11  A    between atoms: _27  and  _29
REMARK   12  A    between atoms: _29  and  _30
REMARK   13  A    between atoms: _29  and  _32
REMARK   14  A    between atoms: _32  and  _33
REMARK   15  A    between atoms: _36  and  _38
REMARK   16  A    between atoms: _38  and  _39
REMARK   17  A    between atoms: _38  and  _41
REMARK   18  A    between atoms: _41  and  _42
REMARK   19  A    between atoms: _42  and  _43
REMARK   20  A    between atoms: _46  and  _48
REMARK   21  A    between atoms: _48  and  _49
REMARK   22  A    between atoms: _48  and  _51
REMARK   23  A    between atoms: _51  and  _52
REMARK   24  A    between atoms: _52  and  _53
REMARK   25  A    between atoms: _56  and  _58
REMARK   26  A    between atoms: _58  and  _59
REMARK   27  A    between atoms: _58  and  _61
REMARK   28  A    between atoms: _61  and  _62
REMARK   29  A    between atoms: _67  and  _68
REMARK   30  A    between atoms: _70  and  _72
REMARK   31  A    between atoms: _72  and  _73
REMARK   32  A    between atoms: _72  and  _75
REMARK   33  A    between atoms: _75  and  _76
REMARK   34  A    between atoms: _81  and  _83
REMARK   35  A    between atoms: _83  and  _84
REMARK   36  A    between atoms: _83  and  _86
REMARK   37  A    between atoms: _86  and  _87
REMARK   38  A    between atoms: _93  and  _95
REMARK   39  A    between atoms: _95  and  _96
REMARK   40  A    between atoms: _95  and  _98
REMARK   41  A    between atoms: _98  and  _99
REMARK   42  A    between atoms: _102  and  _104
REMARK   43  A    between atoms: _104  and  _105
REMARK   44  A    between atoms: _104  and  _107
REMARK   45  A    between atoms: _107  and  _108
REMARK   46  A    between atoms: _111  and  _113
REMARK   47  A    between atoms: _113  and  _114
REMARK   48  A    between atoms: _116  and  _118
REMARK   49  A    between atoms: _118  and  _119
REMARK   50  A    between atoms: _118  and  _121
REMARK   51  A    between atoms: _121  and  _122
REMARK   52  A    between atoms: _124  and  _126
REMARK   53  A    between atoms: _126  and  _127
REMARK   54  A    between atoms: _130  and  _132
REMARK   55  A    between atoms: _132  and  _133
REMARK   56  A    between atoms: _132  and  _135
REMARK   57  A    between atoms: _135  and  _136
REMARK   58  A    between atoms: _139  and  _141
REMARK   59  A    between atoms: _141  and  _142
REMARK   60  A    between atoms: _141  and  _144
REMARK   61  A    between atoms: _144  and  _145
REMARK   62  A    between atoms: _155  and  _157
REMARK   63  A    between atoms: _157  and  _158
REMARK   64  A    between atoms: _157  and  _160
REMARK   65  A    between atoms: _160  and  _161
REMARK   66  A    between atoms: _164  and  _166
REMARK   67  A    between atoms: _166  and  _167
REMARK   68  A    between atoms: _166  and  _169
REMARK   69  A    between atoms: _169  and  _170
REMARK   70  A    between atoms: _172  and  _174
REMARK   71  A    between atoms: _174  and  _175
REMARK   72  A    between atoms: _174  and  _177
REMARK   73  A    between atoms: _177  and  _178
REMARK   74  A    between atoms: _183  and  _184
REMARK   75  A    between atoms: _186  and  _188
REMARK   76  A    between atoms: _188  and  _189
REMARK   77  A    between atoms: _191  and  _193
REMARK   78  A    between atoms: _193  and  _194
REMARK   79  A    between atoms: _193  and  _196
REMARK   80  A    between atoms: _196  and  _197
REMARK   81  A    between atoms: _200  and  _202
REMARK   82  A    between atoms: _202  and  _203
REMARK   83  A    between atoms: _205  and  _207
REMARK   84  A    between atoms: _207  and  _208
REMARK   85  A    between atoms: _207  and  _210
REMARK   86  A    between atoms: _210  and  _211
REMARK   87  A    between atoms: _213  and  _215
REMARK   88  A    between atoms: _215  and  _216
REMARK   89  A    between atoms: _215  and  _218
REMARK   90  A    between atoms: _218  and  _219
REMARK   91  A    between atoms: _221  and  _223
REMARK   92  A    between atoms: _223  and  _224
REMARK   93  A    between atoms: _223  and  _226
REMARK   94  A    between atoms: _226  and  _227
REMARK   95  A    between atoms: _229  and  _231
REMARK   96  A    between atoms: _231  and  _232
REMARK   97  A    between atoms: _231  and  _234
REMARK   98  A    between atoms: _234  and  _235
REMARK   99  A    between atoms: _235  and  _236
REMARK  100  A    between atoms: _241  and  _243
REMARK  101  A    between atoms: _243  and  _244
REMARK  102  A    between atoms: _243  and  _246
REMARK  103  A    between atoms: _246  and  _247
REMARK  104  A    between atoms: _253  and  _255
REMARK  105  A    between atoms: _255  and  _256
REMARK  106  A    between atoms: _255  and  _258
REMARK  107  A    between atoms: _258  and  _259
REMARK  108  A    between atoms: _262  and  _264
REMARK  109  A    between atoms: _264  and  _265
REMARK  110  A    between atoms: _264  and  _267
REMARK  111  A    between atoms: _267  and  _268
REMARK  112  A    between atoms: _273  and  _275
REMARK  113  A    between atoms: _275  and  _276
REMARK  114  A    between atoms: _275  and  _278
REMARK  115  A    between atoms: _278  and  _279
REMARK  116  A    between atoms: _284  and  _286
REMARK  117  A    between atoms: _286  and  _287
REMARK  118  A    between atoms: _289  and  _291
REMARK  119  A    between atoms: _291  and  _292
REMARK  120  A    between atoms: _291  and  _294
REMARK  121  A    between atoms: _294  and  _295
REMARK  122  A    between atoms: _298  and  _300
REMARK  123  A    between atoms: _300  and  _301
REMARK  124  A    between atoms: _300  and  _303
REMARK  125  A    between atoms: _303  and  _304
REMARK  126  A    between atoms: _307  and  _309
REMARK  127  A    between atoms: _309  and  _310
REMARK  128  A    between atoms: _312  and  _314
REMARK  129  A    between atoms: _314  and  _315
REMARK  130  A    between atoms: _314  and  _317
REMARK  131  A    between atoms: _317  and  _318
REMARK  132  A    between atoms: _321  and  _323
REMARK  133  A    between atoms: _323  and  _324
REMARK  134  A    between atoms: _327  and  _329
REMARK  135  A    between atoms: _329  and  _330
REMARK  136  A    between atoms: _329  and  _332
REMARK  137  A    between atoms: _332  and  _333
REMARK  138  A    between atoms: _336  and  _338
REMARK  139  A    between atoms: _338  and  _339
REMARK  140  A    between atoms: _338  and  _341
REMARK  141  A    between atoms: _341  and  _342
REMARK  142  A    between atoms: _342  and  _343
REMARK  143  A    between atoms: _348  and  _350
REMARK  144  A    between atoms: _350  and  _351
REMARK  145  A    between atoms: _350  and  _353
REMARK  146  A    between atoms: _353  and  _354
REMARK  147  A    between atoms: _360  and  _362
REMARK  148  A    between atoms: _362  and  _363
REMARK  149  A    between atoms: _362  and  _365
REMARK  150  A    between atoms: _365  and  _366
REMARK  151  A    between atoms: _376  and  _378
REMARK  152  A    between atoms: _378  and  _379
REMARK  153  A    between atoms: _378  and  _381
REMARK  154  A    between atoms: _381  and  _382
REMARK  155  A    between atoms: _385  and  _387
REMARK  156  A    between atoms: _387  and  _388
REMARK  157  A    between atoms: _391  and  _393
REMARK  158  A    between atoms: _393  and  _394
REMARK  159  A    between atoms: _393  and  _396
REMARK  160  A    between atoms: _396  and  _397
REMARK  161  A    between atoms: _400  and  _402
REMARK  162  A    between atoms: _402  and  _403
REMARK  163  A    between atoms: _402  and  _405
REMARK  164  A    between atoms: _405  and  _406
REMARK  165  A    between atoms: _409  and  _411
REMARK  166  A    between atoms: _411  and  _412
REMARK  167  A    between atoms: _414  and  _416
REMARK  168  A    between atoms: _416  and  _417
REMARK  169  A    between atoms: _416  and  _419
REMARK  170  A    between atoms: _419  and  _420
REMARK  171  A    between atoms: _423  and  _425
REMARK  172  A    between atoms: _425  and  _426
REMARK  173  A    between atoms: _425  and  _428
REMARK  174  A    between atoms: _428  and  _429
REMARK  175  A    between atoms: _432  and  _434
REMARK  176  A    between atoms: _434  and  _435
REMARK  177  A    between atoms: _434  and  _437
REMARK  178  A    between atoms: _437  and  _438
REMARK  179  A    between atoms: _441  and  _443
REMARK  180  A    between atoms: _443  and  _444
REMARK  181  A    between atoms: _443  and  _446
REMARK  182  A    between atoms: _446  and  _447
REMARK  183  A    between atoms: _450  and  _452
REMARK  184  A    between atoms: _452  and  _453
REMARK  185  A    between atoms: _452  and  _455
REMARK  186  A    between atoms: _455  and  _456
REMARK  187  A    between atoms: _459  and  _461
REMARK  188  A    between atoms: _461  and  _462
REMARK  189  A    between atoms: _465  and  _467
REMARK  190  A    between atoms: _467  and  _468
REMARK  191  A    between atoms: _470  and  _472
REMARK  192  A    between atoms: _472  and  _473
REMARK  193  A    between atoms: _475  and  _477
REMARK  194  A    between atoms: _477  and  _478
REMARK  195  A    between atoms: _477  and  _480
REMARK  196  A    between atoms: _480  and  _481
REMARK  197  A    between atoms: _486  and  _487
REMARK  198  A    between atoms: _490  and  _491
REMARK  199  A    between atoms: _496  and  _498
REMARK  200  A    between atoms: _498  and  _499
REMARK  201  A    between atoms: _498  and  _501
REMARK  202  A    between atoms: _501  and  _502
REMARK  203  A    between atoms: _504  and  _506
REMARK  204  A    between atoms: _506  and  _507
REMARK  205  A    between atoms: _506  and  _509
REMARK  206  A    between atoms: _509  and  _510
REMARK  207  A    between atoms: _513  and  _515
REMARK  208  A    between atoms: _515  and  _516
REMARK  209  A    between atoms: _518  and  _520
REMARK  210  A    between atoms: _520  and  _521
REMARK  211  A    between atoms: _520  and  _523
REMARK  212  A    between atoms: _523  and  _524
REMARK  213  A    between atoms: _524  and  _525
REMARK  214  A    between atoms: _530  and  _532
REMARK  215  A    between atoms: _532  and  _533
REMARK  216  A    between atoms: _532  and  _535
REMARK  217  A    between atoms: _535  and  _536
REMARK  218  A    between atoms: _538  and  _540
REMARK  219  A    between atoms: _540  and  _541
REMARK  220  A    between atoms: _540  and  _543
REMARK  221  A    between atoms: _543  and  _544
REMARK  222  A    between atoms: _549  and  _551
REMARK  223  A    between atoms: _551  and  _552
REMARK  224  A    between atoms: _551  and  _554
REMARK  225  A    between atoms: _554  and  _555
REMARK  226  A    between atoms: _557  and  _559
REMARK  227  A    between atoms: _559  and  _560
REMARK  228  A    between atoms: _559  and  _562
REMARK  229  A    between atoms: _562  and  _563
REMARK  230  A    between atoms: _566  and  _568
REMARK  231  A    between atoms: _568  and  _569
REMARK  232  A    between atoms: _568  and  _571
REMARK  233  A    between atoms: _571  and  _572
REMARK  234  A    between atoms: _578  and  _580
REMARK  235  A    between atoms: _580  and  _581
REMARK  236  A    between atoms: _580  and  _583
REMARK  237  A    between atoms: _583  and  _584
REMARK  238  A    between atoms: _586  and  _588
REMARK  239  A    between atoms: _588  and  _589
REMARK  240  A    between atoms: _588  and  _591
REMARK  241  A    between atoms: _591  and  _592
REMARK  242  A    between atoms: _595  and  _597
REMARK  243  A    between atoms: _597  and  _598
REMARK  244  A    between atoms: _597  and  _600
REMARK  245  A    between atoms: _600  and  _601
REMARK  246  A    between atoms: _607  and  _609
REMARK  247  A    between atoms: _609  and  _610
REMARK  248  A    between atoms: _612  and  _614
REMARK  249  A    between atoms: _614  and  _615
REMARK  250  A    between atoms: _614  and  _617
REMARK  251  A    between atoms: _617  and  _618
REMARK                            x       y       z     vdW  Elec       q    Type
REMARK                         _______ _______ _______ _____ _____    ______ ____
ROOT
ATOM      1  O   HOH     1      19.254   2.590  21.336  0.00  0.00    +0.000 OA
ENDROOT
TORSDOF 0
REMARK  Name = ../refined-set-2016/1bxq/1bxq_pocket.pdb
REMARK  251 active torsions:
REMARK  status: ('A' for Active; 'I' for Inactive)
REMARK    1  A    between atoms: _1  and  _3
REMARK    2  A    between atoms: _3  and  _4
REMARK    3  A    between atoms: _3  and  _6
REMARK    4  A    between atoms: _6  and  _7
REMARK    5  A    between atoms: _10  and  _12
REMARK    6  A    between atoms: _12  and  _13
REMARK    7  A    between atoms: _16  and  _18
REMARK    8  A    between atoms: _18  and  _19
REMARK    9  A    between atoms: _18  and  _21
REMARK   10  A    between atoms: _21  and  _22
REMARK   11  A    between atoms: _27  and  _29
REMARK   12  A    between atoms: _29  and  _30
REMARK   13  A    between atoms: _29  and  _32
REMARK   14  A    between atoms: _32  and  _33
REMARK   15  A    between atoms: _36  and  _38
REMARK   16  A    between atoms: _38  and  _39
REMARK   17  A    between atoms: _38  and  _41
REMARK   18  A    between atoms: _41  and  _42
REMARK   19  A    between atoms: _42  and  _43
REMARK   20  A    between atoms: _46  and  _48
REMARK   21  A    between atoms: _48  and  _49
REMARK   22  A    between atoms: _48  and  _51
REMARK   23  A    between atoms: _51  and  _52
REMARK   24  A    between atoms: _52  and  _53
REMARK   25  A    between atoms: _56  and  _58
REMARK   26  A    between atoms: _58  and  _59
REMARK   27  A    between atoms: _58  and  _61
REMARK   28  A    between atoms: _61  and  _62
REMARK   29  A    between atoms: _67  and  _68
REMARK   30  A    between atoms: _70  and  _72
REMARK   31  A    between atoms: _72  and  _73
REMARK   32  A    between atoms: _72  and  _75
REMARK   33  A    between atoms: _75  and  _76
REMARK   34  A    between atoms: _81  and  _83
REMARK   35  A    between atoms: _83  and  _84
REMARK   36  A    between atoms: _83  and  _86
REMARK   37  A    between atoms: _86  and  _87
REMARK   38  A    between atoms: _93  and  _95
REMARK   39  A    between atoms: _95  and  _96
REMARK   40  A    between atoms: _95  and  _98
REMARK   41  A    between atoms: _98  and  _99
REMARK   42  A    between atoms: _102  and  _104
REMARK   43  A    between atoms: _104  and  _105
REMARK   44  A    between atoms: _104  and  _107
REMARK   45  A    between atoms: _107  and  _108
REMARK   46  A    between atoms: _111  and  _113
REMARK   47  A    between atoms: _113  and  _114
REMARK   48  A    between atoms: _116  and  _118
REMARK   49  A    between atoms: _118  and  _119
REMARK   50  A    between atoms: _118  and  _121
REMARK   51  A    between atoms: _121  and  _122
REMARK   52  A    between atoms: _124  and  _126
REMARK   53  A    between atoms: _126  and  _127
REMARK   54  A    between atoms: _130  and  _132
REMARK   55  A    between atoms: _132  and  _133
REMARK   56  A    between atoms: _132  and  _135
REMARK   57  A    between atoms: _135  and  _136
REMARK   58  A    between atoms: _139  and  _141
REMARK   59  A    between atoms: _141  and  _142
REMARK   60  A    between atoms: _141  and  _144
REMARK   61  A    between atoms: _144  and  _145
REMARK   62  A    between atoms: _155  and  _157
REMARK   63  A    between atoms: _157  and  _158
REMARK   64  A    between atoms: _157  and  _160
REMARK   65  A    between atoms: _160  and  _161
REMARK   66  A    between atoms: _164  and  _166
REMARK   67  A    between atoms: _166  and  _167
REMARK   68  A    between atoms: _166  and  _169
REMARK   69  A    between atoms: _169  and  _170
REMARK   70  A    between atoms: _172  and  _174
REMARK   71  A    between atoms: _174  and  _175
REMARK   72  A    between atoms: _174  and  _177
REMARK   73  A    between atoms: _177  and  _178
REMARK   74  A    between atoms: _183  and  _184
REMARK   75  A    between atoms: _186  and  _188
REMARK   76  A    between atoms: _188  and  _189
REMARK   77  A    between atoms: _191  and  _193
REMARK   78  A    between atoms: _193  and  _194
REMARK   79  A    between atoms: _193  and  _196
REMARK   80  A    between atoms: _196  and  _197
REMARK   81  A    between atoms: _200  and  _202
REMARK   82  A    between atoms: _202  and  _203
REMARK   83  A    between atoms: _205  and  _207
REMARK   84  A    between atoms: _207  and  _208
REMARK   85  A    between atoms: _207  and  _210
REMARK   86  A    between atoms: _210  and  _211
REMARK   87  A    between atoms: _213  and  _215
REMARK   88  A    between atoms: _215  and  _216
REMARK   89  A    between atoms: _215  and  _218
REMARK   90  A    between atoms: _218  and  _219
REMARK   91  A    between atoms: _221  and  _223
REMARK   92  A    between atoms: _223  and  _224
REMARK   93  A    between atoms: _223  and  _226
REMARK   94  A    between atoms: _226  and  _227
REMARK   95  A    between atoms: _229  and  _231
REMARK   96  A    between atoms: _231  and  _232
REMARK   97  A    between atoms: _231  and  _234
REMARK   98  A    between atoms: _234  and  _235
REMARK   99  A    between atoms: _235  and  _236
REMARK  100  A    between atoms: _241  and  _243
REMARK  101  A    between atoms: _243  and  _244
REMARK  102  A    between atoms: _243  and  _246
REMARK  103  A    between atoms: _246  and  _247
REMARK  104  A    between atoms: _253  and  _255
REMARK  105  A    between atoms: _255  and  _256
REMARK  106  A    between atoms: _255  and  _258
REMARK  107  A    between atoms: _258  and  _259
REMARK  108  A    between atoms: _262  and  _264
REMARK  109  A    between atoms: _264  and  _265
REMARK  110  A    between atoms: _264  and  _267
REMARK  111  A    between atoms: _267  and  _268
REMARK  112  A    between atoms: _273  and  _275
REMARK  113  A    between atoms: _275  and  _276
REMARK  114  A    between atoms: _275  and  _278
REMARK  115  A    between atoms: _278  and  _279
REMARK  116  A    between atoms: _284  and  _286
REMARK  117  A    between atoms: _286  and  _287
REMARK  118  A    between atoms: _289  and  _291
REMARK  119  A    between atoms: _291  and  _292
REMARK  120  A    between atoms: _291  and  _294
REMARK  121  A    between atoms: _294  and  _295
REMARK  122  A    between atoms: _298  and  _300
REMARK  123  A    between atoms: _300  and  _301
REMARK  124  A    between atoms: _300  and  _303
REMARK  125  A    between atoms: _303  and  _304
REMARK  126  A    between atoms: _307  and  _309
REMARK  127  A    between atoms: _309  and  _310
REMARK  128  A    between atoms: _312  and  _314
REMARK  129  A    between atoms: _314  and  _315
REMARK  130  A    between atoms: _314  and  _317
REMARK  131  A    between atoms: _317  and  _318
REMARK  132  A    between atoms: _321  and  _323
REMARK  133  A    between atoms: _323  and  _324
REMARK  134  A    between atoms: _327  and  _329
REMARK  135  A    between atoms: _329  and  _330
REMARK  136  A    between atoms: _329  and  _332
REMARK  137  A    between atoms: _332  and  _333
REMARK  138  A    between atoms: _336  and  _338
REMARK  139  A    between atoms: _338  and  _339
REMARK  140  A    between atoms: _338  and  _341
REMARK  141  A    between atoms: _341  and  _342
REMARK  142  A    between atoms: _342  and  _343
REMARK  143  A    between atoms: _348  and  _350
REMARK  144  A    between atoms: _350  and  _351
REMARK  145  A    between atoms: _350  and  _353
REMARK  146  A    between atoms: _353  and  _354
REMARK  147  A    between atoms: _360  and  _362
REMARK  148  A    between atoms: _362  and  _363
REMARK  149  A    between atoms: _362  and  _365
REMARK  150  A    between atoms: _365  and  _366
REMARK  151  A    between atoms: _376  and  _378
REMARK  152  A    between atoms: _378  and  _379
REMARK  153  A    between atoms: _378  and  _381
REMARK  154  A    between atoms: _381  and  _382
REMARK  155  A    between atoms: _385  and  _387
REMARK  156  A    between atoms: _387  and  _388
REMARK  157  A    between atoms: _391  and  _393
REMARK  158  A    between atoms: _393  and  _394
REMARK  159  A    between atoms: _393  and  _396
REMARK  160  A    between atoms: _396  and  _397
REMARK  161  A    between atoms: _400  and  _402
REMARK  162  A    between atoms: _402  and  _403
REMARK  163  A    between atoms: _402  and  _405
REMARK  164  A    between atoms: _405  and  _406
REMARK  165  A    between atoms: _409  and  _411
REMARK  166  A    between atoms: _411  and  _412
REMARK  167  A    between atoms: _414  and  _416
REMARK  168  A    between atoms: _416  and  _417
REMARK  169  A    between atoms: _416  and  _419
REMARK  170  A    between atoms: _419  and  _420
REMARK  171  A    between atoms: _423  and  _425
REMARK  172  A    between atoms: _425  and  _426
REMARK  173  A    between atoms: _425  and  _428
REMARK  174  A    between atoms: _428  and  _429
REMARK  175  A    between atoms: _432  and  _434
REMARK  176  A    between atoms: _434  and  _435
REMARK  177  A    between atoms: _434  and  _437
REMARK  178  A    between atoms: _437  and  _438
REMARK  179  A    between atoms: _441  and  _443
REMARK  180  A    between atoms: _443  and  _444
REMARK  181  A    between atoms: _443  and  _446
REMARK  182  A    between atoms: _446  and  _447
REMARK  183  A    between atoms: _450  and  _452
REMARK  184  A    between atoms: _452  and  _453
REMARK  185  A    between atoms: _452  and  _455
REMARK  186  A    between atoms: _455  and  _456
REMARK  187  A    between atoms: _459  and  _461
REMARK  188  A    between atoms: _461  and  _462
REMARK  189  A    between atoms: _465  and  _467
REMARK  190  A    between atoms: _467  and  _468
REMARK  191  A    between atoms: _470  and  _472
REMARK  192  A    between atoms: _472  and  _473
REMARK  193  A    between atoms: _475  and  _477
REMARK  194  A    between atoms: _477  and  _478
REMARK  195  A    between atoms: _477  and  _480
REMARK  196  A    between atoms: _480  and  _481
REMARK  197  A    between atoms: _486  and  _487
REMARK  198  A    between atoms: _490  and  _491
REMARK  199  A    between atoms: _496  and  _498
REMARK  200  A    between atoms: _498  and  _499
REMARK  201  A    between atoms: _498  and  _501
REMARK  202  A    between atoms: _501  and  _502
REMARK  203  A    between atoms: _504  and  _506
REMARK  204  A    between atoms: _506  and  _507
REMARK  205  A    between atoms: _506  and  _509
REMARK  206  A    between atoms: _509  and  _510
REMARK  207  A    between atoms: _513  and  _515
REMARK  208  A    between atoms: _515  and  _516
REMARK  209  A    between atoms: _518  and  _520
REMARK  210  A    between atoms: _520  and  _521
REMARK  211  A    between atoms: _520  and  _523
REMARK  212  A    between atoms: _523  and  _524
REMARK  213  A    between atoms: _524  and  _525
REMARK  214  A    between atoms: _530  and  _532
REMARK  215  A    between atoms: _532  and  _533
REMARK  216  A    between atoms: _532  and  _535
REMARK  217  A    between atoms: _535  and  _536
REMARK  218  A    between atoms: _538  and  _540
REMARK  219  A    between atoms: _540  and  _541
REMARK  220  A    between atoms: _540  and  _543
REMARK  221  A    between atoms: _543  and  _544
REMARK  222  A    between atoms: _549  and  _551
REMARK  223  A    between atoms: _551  and  _552
REMARK  224  A    between atoms: _551  and  _554
REMARK  225  A    between atoms: _554  and  _555
REMARK  226  A    between atoms: _557  and  _559
REMARK  227  A    between atoms: _559  and  _560
REMARK  228  A    between atoms: _559  and  _562
REMARK  229  A    between atoms: _562  and  _563
REMARK  230  A    between atoms: _566  and  _568
REMARK  231  A    between atoms: _568  and  _569
REMARK  232  A    between atoms: _568  and  _571
REMARK  233  A    between atoms: _571  and  _572
REMARK  234  A    between atoms: _578  and  _580
REMARK  235  A    between atoms: _580  and  _581
REMARK  236  A    between atoms: _580  and  _583
REMARK  237  A    between atoms: _583  and  _584
REMARK  238  A    between atoms: _586  and  _588
REMARK  239  A    between atoms: _588  and  _589
REMARK  240  A    between atoms: _588  and  _591
REMARK  241  A    between atoms: _591  and  _592
REMARK  242  A    between atoms: _595  and  _597
REMARK  243  A    between atoms: _597  and  _598
REMARK  244  A    between atoms: _597  and  _600
REMARK  245  A    between atoms: _600  and  _601
REMARK  246  A    between atoms: _607  and  _609
REMARK  247  A    between atoms: _609  and  _610
REMARK  248  A    between atoms: _612  and  _614
REMARK  249  A    between atoms: _614  and  _615
REMARK  250  A    between atoms: _614  and  _617
REMARK  251  A    between atoms: _617  and  _618
REMARK                            x       y       z     vdW  Elec       q    Type
REMARK                         _______ _______ _______ _____ _____    ______ ____
ROOT
ATOM      1  O   HOH     1      26.649   4.779  27.875  0.00  0.00    +0.000 OA
ENDROOT
TORSDOF 0
REMARK  Name = ../refined-set-2016/1bxq/1bxq_pocket.pdb
REMARK  251 active torsions:
REMARK  status: ('A' for Active; 'I' for Inactive)
REMARK    1  A    between atoms: _1  and  _3
REMARK    2  A    between atoms: _3  and  _4
REMARK    3  A    between atoms: _3  and  _6
REMARK    4  A    between atoms: _6  and  _7
REMARK    5  A    between atoms: _10  and  _12
REMARK    6  A    between atoms: _12  and  _13
REMARK    7  A    between atoms: _16  and  _18
REMARK    8  A    between atoms: _18  and  _19
REMARK    9  A    between atoms: _18  and  _21
REMARK   10  A    between atoms: _21  and  _22
REMARK   11  A    between atoms: _27  and  _29
REMARK   12  A    between atoms: _29  and  _30
REMARK   13  A    between atoms: _29  and  _32
REMARK   14  A    between atoms: _32  and  _33
REMARK   15  A    between atoms: _36  and  _38
REMARK   16  A    between atoms: _38  and  _39
REMARK   17  A    between atoms: _38  and  _41
REMARK   18  A    between atoms: _41  and  _42
REMARK   19  A    between atoms: _42  and  _43
REMARK   20  A    between atoms: _46  and  _48
REMARK   21  A    between atoms: _48  and  _49
REMARK   22  A    between atoms: _48  and  _51
REMARK   23  A    between atoms: _51  and  _52
REMARK   24  A    between atoms: _52  and  _53
REMARK   25  A    between atoms: _56  and  _58
REMARK   26  A    between atoms: _58  and  _59
REMARK   27  A    between atoms: _58  and  _61
REMARK   28  A    between atoms: _61  and  _62
REMARK   29  A    between atoms: _67  and  _68
REMARK   30  A    between atoms: _70  and  _72
REMARK   31  A    between atoms: _72  and  _73
REMARK   32  A    between atoms: _72  and  _75
REMARK   33  A    between atoms: _75  and  _76
REMARK   34  A    between atoms: _81  and  _83
REMARK   35  A    between atoms: _83  and  _84
REMARK   36  A    between atoms: _83  and  _86
REMARK   37  A    between atoms: _86  and  _87
REMARK   38  A    between atoms: _93  and  _95
REMARK   39  A    between atoms: _95  and  _96
REMARK   40  A    between atoms: _95  and  _98
REMARK   41  A    between atoms: _98  and  _99
REMARK   42  A    between atoms: _102  and  _104
REMARK   43  A    between atoms: _104  and  _105
REMARK   44  A    between atoms: _104  and  _107
REMARK   45  A    between atoms: _107  and  _108
REMARK   46  A    between atoms: _111  and  _113
REMARK   47  A    between atoms: _113  and  _114
REMARK   48  A    between atoms: _116  and  _118
REMARK   49  A    between atoms: _118  and  _119
REMARK   50  A    between atoms: _118  and  _121
REMARK   51  A    between atoms: _121  and  _122
REMARK   52  A    between atoms: _124  and  _126
REMARK   53  A    between atoms: _126  and  _127
REMARK   54  A    between atoms: _130  and  _132
REMARK   55  A    between atoms: _132  and  _133
REMARK   56  A    between atoms: _132  and  _135
REMARK   57  A    between atoms: _135  and  _136
REMARK   58  A    between atoms: _139  and  _141
REMARK   59  A    between atoms: _141  and  _142
REMARK   60  A    between atoms: _141  and  _144
REMARK   61  A    between atoms: _144  and  _145
REMARK   62  A    between atoms: _155  and  _157
REMARK   63  A    between atoms: _157  and  _158
REMARK   64  A    between atoms: _157  and  _160
REMARK   65  A    between atoms: _160  and  _161
REMARK   66  A    between atoms: _164  and  _166
REMARK   67  A    between atoms: _166  and  _167
REMARK   68  A    between atoms: _166  and  _169
REMARK   69  A    between atoms: _169  and  _170
REMARK   70  A    between atoms: _172  and  _174
REMARK   71  A    between atoms: _174  and  _175
REMARK   72  A    between atoms: _174  and  _177
REMARK   73  A    between atoms: _177  and  _178
REMARK   74  A    between atoms: _183  and  _184
REMARK   75  A    between atoms: _186  and  _188
REMARK   76  A    between atoms: _188  and  _189
REMARK   77  A    between atoms: _191  and  _193
REMARK   78  A    between atoms: _193  and  _194
REMARK   79  A    between atoms: _193  and  _196
REMARK   80  A    between atoms: _196  and  _197
REMARK   81  A    between atoms: _200  and  _202
REMARK   82  A    between atoms: _202  and  _203
REMARK   83  A    between atoms: _205  and  _207
REMARK   84  A    between atoms: _207  and  _208
REMARK   85  A    between atoms: _207  and  _210
REMARK   86  A    between atoms: _210  and  _211
REMARK   87  A    between atoms: _213  and  _215
REMARK   88  A    between atoms: _215  and  _216
REMARK   89  A    between atoms: _215  and  _218
REMARK   90  A    between atoms: _218  and  _219
REMARK   91  A    between atoms: _221  and  _223
REMARK   92  A    between atoms: _223  and  _224
REMARK   93  A    between atoms: _223  and  _226
REMARK   94  A    between atoms: _226  and  _227
REMARK   95  A    between atoms: _229  and  _231
REMARK   96  A    between atoms: _231  and  _232
REMARK   97  A    between atoms: _231  and  _234
REMARK   98  A    between atoms: _234  and  _235
REMARK   99  A    between atoms: _235  and  _236
REMARK  100  A    between atoms: _241  and  _243
REMARK  101  A    between atoms: _243  and  _244
REMARK  102  A    between atoms: _243  and  _246
REMARK  103  A    between atoms: _246  and  _247
REMARK  104  A    between atoms: _253  and  _255
REMARK  105  A    between atoms: _255  and  _256
REMARK  106  A    between atoms: _255  and  _258
REMARK  107  A    between atoms: _258  and  _259
REMARK  108  A    between atoms: _262  and  _264
REMARK  109  A    between atoms: _264  and  _265
REMARK  110  A    between atoms: _264  and  _267
REMARK  111  A    between atoms: _267  and  _268
REMARK  112  A    between atoms: _273  and  _275
REMARK  113  A    between atoms: _275  and  _276
REMARK  114  A    between atoms: _275  and  _278
REMARK  115  A    between atoms: _278  and  _279
REMARK  116  A    between atoms: _284  and  _286
REMARK  117  A    between atoms: _286  and  _287
REMARK  118  A    between atoms: _289  and  _291
REMARK  119  A    between atoms: _291  and  _292
REMARK  120  A    between atoms: _291  and  _294
REMARK  121  A    between atoms: _294  and  _295
REMARK  122  A    between atoms: _298  and  _300
REMARK  123  A    between atoms: _300  and  _301
REMARK  124  A    between atoms: _300  and  _303
REMARK  125  A    between atoms: _303  and  _304
REMARK  126  A    between atoms: _307  and  _309
REMARK  127  A    between atoms: _309  and  _310
REMARK  128  A    between atoms: _312  and  _314
REMARK  129  A    between atoms: _314  and  _315
REMARK  130  A    between atoms: _314  and  _317
REMARK  131  A    between atoms: _317  and  _318
REMARK  132  A    between atoms: _321  and  _323
REMARK  133  A    between atoms: _323  and  _324
REMARK  134  A    between atoms: _327  and  _329
REMARK  135  A    between atoms: _329  and  _330
REMARK  136  A    between atoms: _329  and  _332
REMARK  137  A    between atoms: _332  and  _333
REMARK  138  A    between atoms: _336  and  _338
REMARK  139  A    between atoms: _338  and  _339
REMARK  140  A    between atoms: _338  and  _341
REMARK  141  A    between atoms: _341  and  _342
REMARK  142  A    between atoms: _342  and  _343
REMARK  143  A    between atoms: _348  and  _350
REMARK  144  A    between atoms: _350  and  _351
REMARK  145  A    between atoms: _350  and  _353
REMARK  146  A    between atoms: _353  and  _354
REMARK  147  A    between atoms: _360  and  _362
REMARK  148  A    between atoms: _362  and  _363
REMARK  149  A    between atoms: _362  and  _365
REMARK  150  A    between atoms: _365  and  _366
REMARK  151  A    between atoms: _376  and  _378
REMARK  152  A    between atoms: _378  and  _379
REMARK  153  A    between atoms: _378  and  _381
REMARK  154  A    between atoms: _381  and  _382
REMARK  155  A    between atoms: _385  and  _387
REMARK  156  A    between atoms: _387  and  _388
REMARK  157  A    between atoms: _391  and  _393
REMARK  158  A    between atoms: _393  and  _394
REMARK  159  A    between atoms: _393  and  _396
REMARK  160  A    between atoms: _396  and  _397
REMARK  161  A    between atoms: _400  and  _402
REMARK  162  A    between atoms: _402  and  _403
REMARK  163  A    between atoms: _402  and  _405
REMARK  164  A    between atoms: _405  and  _406
REMARK  165  A    between atoms: _409  and  _411
REMARK  166  A    between atoms: _411  and  _412
REMARK  167  A    between atoms: _414  and  _416
REMARK  168  A    between atoms: _416  and  _417
REMARK  169  A    between atoms: _416  and  _419
REMARK  170  A    between atoms: _419  and  _420
REMARK  171  A    between atoms: _423  and  _425
REMARK  172  A    between atoms: _425  and  _426
REMARK  173  A    between atoms: _425  and  _428
REMARK  174  A    between atoms: _428  and  _429
REMARK  175  A    between atoms: _432  and  _434
REMARK  176  A    between atoms: _434  and  _435
REMARK  177  A    between atoms: _434  and  _437
REMARK  178  A    between atoms: _437  and  _438
REMARK  179  A    between atoms: _441  and  _443
REMARK  180  A    between atoms: _443  and  _444
REMARK  181  A    between atoms: _443  and  _446
REMARK  182  A    between atoms: _446  and  _447
REMARK  183  A    between atoms: _450  and  _452
REMARK  184  A    between atoms: _452  and  _453
REMARK  185  A    between atoms: _452  and  _455
REMARK  186  A    between atoms: _455  and  _456
REMARK  187  A    between atoms: _459  and  _461
REMARK  188  A    between atoms: _461  and  _462
REMARK  189  A    between atoms: _465  and  _467
REMARK  190  A    between atoms: _467  and  _468
REMARK  191  A    between atoms: _470  and  _472
REMARK  192  A    between atoms: _472  and  _473
REMARK  193  A    between atoms: _475  and  _477
REMARK  194  A    between atoms: _477  and  _478
REMARK  195  A    between atoms: _477  and  _480
REMARK  196  A    between atoms: _480  and  _481
REMARK  197  A    between atoms: _486  and  _487
REMARK  198  A    between atoms: _490  and  _491
REMARK  199  A    between atoms: _496  and  _498
REMARK  200  A    between atoms: _498  and  _499
REMARK  201  A    between atoms: _498  and  _501
REMARK  202  A    between atoms: _501  and  _502
REMARK  203  A    between atoms: _504  and  _506
REMARK  204  A    between atoms: _506  and  _507
REMARK  205  A    between atoms: _506  and  _509
REMARK  206  A    between atoms: _509  and  _510
REMARK  207  A    between atoms: _513  and  _515
REMARK  208  A    between atoms: _515  and  _516
REMARK  209  A    between atoms: _518  and  _520
REMARK  210  A    between atoms: _520  and  _521
REMARK  211  A    between atoms: _520  and  _523
REMARK  212  A    between atoms: _523  and  _524
REMARK  213  A    between atoms: _524  and  _525
REMARK  214  A    between atoms: _530  and  _532
REMARK  215  A    between atoms: _532  and  _533
REMARK  216  A    between atoms: _532  and  _535
REMARK  217  A    between atoms: _535  and  _536
REMARK  218  A    between atoms: _538  and  _540
REMARK  219  A    between atoms: _540  and  _541
REMARK  220  A    between atoms: _540  and  _543
REMARK  221  A    between atoms: _543  and  _544
REMARK  222  A    between atoms: _549  and  _551
REMARK  223  A    between atoms: _551  and  _552
REMARK  224  A    between atoms: _551  and  _554
REMARK  225  A    between atoms: _554  and  _555
REMARK  226  A    between atoms: _557  and  _559
REMARK  227  A    between atoms: _559  and  _560
REMARK  228  A    between atoms: _559  and  _562
REMARK  229  A    between atoms: _562  and  _563
REMARK  230  A    between atoms: _566  and  _568
REMARK  231  A    between atoms: _568  and  _569
REMARK  232  A    between atoms: _568  and  _571
REMARK  233  A    between atoms: _571  and  _572
REMARK  234  A    between atoms: _578  and  _580
REMARK  235  A    between atoms: _580  and  _581
REMARK  236  A    between atoms: _580  and  _583
REMARK  237  A    between atoms: _583  and  _584
REMARK  238  A    between atoms: _586  and  _588
REMARK  239  A    between atoms: _588  and  _589
REMARK  240  A    between atoms: _588  and  _591
REMARK  241  A    between atoms: _591  and  _592
REMARK  242  A    between atoms: _595  and  _597
REMARK  243  A    between atoms: _597  and  _598
REMARK  244  A    between atoms: _597  and  _600
REMARK  245  A    between atoms: _600  and  _601
REMARK  246  A    between atoms: _607  and  _609
REMARK  247  A    between atoms: _609  and  _610
REMARK  248  A    between atoms: _612  and  _614
REMARK  249  A    between atoms: _614  and  _615
REMARK  250  A    between atoms: _614  and  _617
REMARK  251  A    between atoms: _617  and  _618
REMARK                            x       y       z     vdW  Elec       q    Type
REMARK                         _______ _______ _______ _____ _____    ______ ____
ROOT
ATOM      1  O   HOH     1      12.144   7.076  25.345  0.00  0.00    +0.000 OA
ENDROOT
TORSDOF 0
REMARK  Name = ../refined-set-2016/1bxq/1bxq_pocket.pdb
REMARK  251 active torsions:
REMARK  status: ('A' for Active; 'I' for Inactive)
REMARK    1  A    between atoms: _1  and  _3
REMARK    2  A    between atoms: _3  and  _4
REMARK    3  A    between atoms: _3  and  _6
REMARK    4  A    between atoms: _6  and  _7
REMARK    5  A    between atoms: _10  and  _12
REMARK    6  A    between atoms: _12  and  _13
REMARK    7  A    between atoms: _16  and  _18
REMARK    8  A    between atoms: _18  and  _19
REMARK    9  A    between atoms: _18  and  _21
REMARK   10  A    between atoms: _21  and  _22
REMARK   11  A    between atoms: _27  and  _29
REMARK   12  A    between atoms: _29  and  _30
REMARK   13  A    between atoms: _29  and  _32
REMARK   14  A    between atoms: _32  and  _33
REMARK   15  A    between atoms: _36  and  _38
REMARK   16  A    between atoms: _38  and  _39
REMARK   17  A    between atoms: _38  and  _41
REMARK   18  A    between atoms: _41  and  _42
REMARK   19  A    between atoms: _42  and  _43
REMARK   20  A    between atoms: _46  and  _48
REMARK   21  A    between atoms: _48  and  _49
REMARK   22  A    between atoms: _48  and  _51
REMARK   23  A    between atoms: _51  and  _52
REMARK   24  A    between atoms: _52  and  _53
REMARK   25  A    between atoms: _56  and  _58
REMARK   26  A    between atoms: _58  and  _59
REMARK   27  A    between atoms: _58  and  _61
REMARK   28  A    between atoms: _61  and  _62
REMARK   29  A    between atoms: _67  and  _68
REMARK   30  A    between atoms: _70  and  _72
REMARK   31  A    between atoms: _72  and  _73
REMARK   32  A    between atoms: _72  and  _75
REMARK   33  A    between atoms: _75  and  _76
REMARK   34  A    between atoms: _81  and  _83
REMARK   35  A    between atoms: _83  and  _84
REMARK   36  A    between atoms: _83  and  _86
REMARK   37  A    between atoms: _86  and  _87
REMARK   38  A    between atoms: _93  and  _95
REMARK   39  A    between atoms: _95  and  _96
REMARK   40  A    between atoms: _95  and  _98
REMARK   41  A    between atoms: _98  and  _99
REMARK   42  A    between atoms: _102  and  _104
REMARK   43  A    between atoms: _104  and  _105
REMARK   44  A    between atoms: _104  and  _107
REMARK   45  A    between atoms: _107  and  _108
REMARK   46  A    between atoms: _111  and  _113
REMARK   47  A    between atoms: _113  and  _114
REMARK   48  A    between atoms: _116  and  _118
REMARK   49  A    between atoms: _118  and  _119
REMARK   50  A    between atoms: _118  and  _121
REMARK   51  A    between atoms: _121  and  _122
REMARK   52  A    between atoms: _124  and  _126
REMARK   53  A    between atoms: _126  and  _127
REMARK   54  A    between atoms: _130  and  _132
REMARK   55  A    between atoms: _132  and  _133
REMARK   56  A    between atoms: _132  and  _135
REMARK   57  A    between atoms: _135  and  _136
REMARK   58  A    between atoms: _139  and  _141
REMARK   59  A    between atoms: _141  and  _142
REMARK   60  A    between atoms: _141  and  _144
REMARK   61  A    between atoms: _144  and  _145
REMARK   62  A    between atoms: _155  and  _157
REMARK   63  A    between atoms: _157  and  _158
REMARK   64  A    between atoms: _157  and  _160
REMARK   65  A    between atoms: _160  and  _161
REMARK   66  A    between atoms: _164  and  _166
REMARK   67  A    between atoms: _166  and  _167
REMARK   68  A    between atoms: _166  and  _169
REMARK   69  A    between atoms: _169  and  _170
REMARK   70  A    between atoms: _172  and  _174
REMARK   71  A    between atoms: _174  and  _175
REMARK   72  A    between atoms: _174  and  _177
REMARK   73  A    between atoms: _177  and  _178
REMARK   74  A    between atoms: _183  and  _184
REMARK   75  A    between atoms: _186  and  _188
REMARK   76  A    between atoms: _188  and  _189
REMARK   77  A    between atoms: _191  and  _193
REMARK   78  A    between atoms: _193  and  _194
REMARK   79  A    between atoms: _193  and  _196
REMARK   80  A    between atoms: _196  and  _197
REMARK   81  A    between atoms: _200  and  _202
REMARK   82  A    between atoms: _202  and  _203
REMARK   83  A    between atoms: _205  and  _207
REMARK   84  A    between atoms: _207  and  _208
REMARK   85  A    between atoms: _207  and  _210
REMARK   86  A    between atoms: _210  and  _211
REMARK   87  A    between atoms: _213  and  _215
REMARK   88  A    between atoms: _215  and  _216
REMARK   89  A    between atoms: _215  and  _218
REMARK   90  A    between atoms: _218  and  _219
REMARK   91  A    between atoms: _221  and  _223
REMARK   92  A    between atoms: _223  and  _224
REMARK   93  A    between atoms: _223  and  _226
REMARK   94  A    between atoms: _226  and  _227
REMARK   95  A    between atoms: _229  and  _231
REMARK   96  A    between atoms: _231  and  _232
REMARK   97  A    between atoms: _231  and  _234
REMARK   98  A    between atoms: _234  and  _235
REMARK   99  A    between atoms: _235  and  _236
REMARK  100  A    between atoms: _241  and  _243
REMARK  101  A    between atoms: _243  and  _244
REMARK  102  A    between atoms: _243  and  _246
REMARK  103  A    between atoms: _246  and  _247
REMARK  104  A    between atoms: _253  and  _255
REMARK  105  A    between atoms: _255  and  _256
REMARK  106  A    between atoms: _255  and  _258
REMARK  107  A    between atoms: _258  and  _259
REMARK  108  A    between atoms: _262  and  _264
REMARK  109  A    between atoms: _264  and  _265
REMARK  110  A    between atoms: _264  and  _267
REMARK  111  A    between atoms: _267  and  _268
REMARK  112  A    between atoms: _273  and  _275
REMARK  113  A    between atoms: _275  and  _276
REMARK  114  A    between atoms: _275  and  _278
REMARK  115  A    between atoms: _278  and  _279
REMARK  116  A    between atoms: _284  and  _286
REMARK  117  A    between atoms: _286  and  _287
REMARK  118  A    between atoms: _289  and  _291
REMARK  119  A    between atoms: _291  and  _292
REMARK  120  A    between atoms: _291  and  _294
REMARK  121  A    between atoms: _294  and  _295
REMARK  122  A    between atoms: _298  and  _300
REMARK  123  A    between atoms: _300  and  _301
REMARK  124  A    between atoms: _300  and  _303
REMARK  125  A    between atoms: _303  and  _304
REMARK  126  A    between atoms: _307  and  _309
REMARK  127  A    between atoms: _309  and  _310
REMARK  128  A    between atoms: _312  and  _314
REMARK  129  A    between atoms: _314  and  _315
REMARK  130  A    between atoms: _314  and  _317
REMARK  131  A    between atoms: _317  and  _318
REMARK  132  A    between atoms: _321  and  _323
REMARK  133  A    between atoms: _323  and  _324
REMARK  134  A    between atoms: _327  and  _329
REMARK  135  A    between atoms: _329  and  _330
REMARK  136  A    between atoms: _329  and  _332
REMARK  137  A    between atoms: _332  and  _333
REMARK  138  A    between atoms: _336  and  _338
REMARK  139  A    between atoms: _338  and  _339
REMARK  140  A    between atoms: _338  and  _341
REMARK  141  A    between atoms: _341  and  _342
REMARK  142  A    between atoms: _342  and  _343
REMARK  143  A    between atoms: _348  and  _350
REMARK  144  A    between atoms: _350  and  _351
REMARK  145  A    between atoms: _350  and  _353
REMARK  146  A    between atoms: _353  and  _354
REMARK  147  A    between atoms: _360  and  _362
REMARK  148  A    between atoms: _362  and  _363
REMARK  149  A    between atoms: _362  and  _365
REMARK  150  A    between atoms: _365  and  _366
REMARK  151  A    between atoms: _376  and  _378
REMARK  152  A    between atoms: _378  and  _379
REMARK  153  A    between atoms: _378  and  _381
REMARK  154  A    between atoms: _381  and  _382
REMARK  155  A    between atoms: _385  and  _387
REMARK  156  A    between atoms: _387  and  _388
REMARK  157  A    between atoms: _391  and  _393
REMARK  158  A    between atoms: _393  and  _394
REMARK  159  A    between atoms: _393  and  _396
REMARK  160  A    between atoms: _396  and  _397
REMARK  161  A    between atoms: _400  and  _402
REMARK  162  A    between atoms: _402  and  _403
REMARK  163  A    between atoms: _402  and  _405
REMARK  164  A    between atoms: _405  and  _406
REMARK  165  A    between atoms: _409  and  _411
REMARK  166  A    between atoms: _411  and  _412
REMARK  167  A    between atoms: _414  and  _416
REMARK  168  A    between atoms: _416  and  _417
REMARK  169  A    between atoms: _416  and  _419
REMARK  170  A    between atoms: _419  and  _420
REMARK  171  A    between atoms: _423  and  _425
REMARK  172  A    between atoms: _425  and  _426
REMARK  173  A    between atoms: _425  and  _428
REMARK  174  A    between atoms: _428  and  _429
REMARK  175  A    between atoms: _432  and  _434
REMARK  176  A    between atoms: _434  and  _435
REMARK  177  A    between atoms: _434  and  _437
REMARK  178  A    between atoms: _437  and  _438
REMARK  179  A    between atoms: _441  and  _443
REMARK  180  A    between atoms: _443  and  _444
REMARK  181  A    between atoms: _443  and  _446
REMARK  182  A    between atoms: _446  and  _447
REMARK  183  A    between atoms: _450  and  _452
REMARK  184  A    between atoms: _452  and  _453
REMARK  185  A    between atoms: _452  and  _455
REMARK  186  A    between atoms: _455  and  _456
REMARK  187  A    between atoms: _459  and  _461
REMARK  188  A    between atoms: _461  and  _462
REMARK  189  A    between atoms: _465  and  _467
REMARK  190  A    between atoms: _467  and  _468
REMARK  191  A    between atoms: _470  and  _472
REMARK  192  A    between atoms: _472  and  _473
REMARK  193  A    between atoms: _475  and  _477
REMARK  194  A    between atoms: _477  and  _478
REMARK  195  A    between atoms: _477  and  _480
REMARK  196  A    between atoms: _480  and  _481
REMARK  197  A    between atoms: _486  and  _487
REMARK  198  A    between atoms: _490  and  _491
REMARK  199  A    between atoms: _496  and  _498
REMARK  200  A    between atoms: _498  and  _499
REMARK  201  A    between atoms: _498  and  _501
REMARK  202  A    between atoms: _501  and  _502
REMARK  203  A    between atoms: _504  and  _506
REMARK  204  A    between atoms: _506  and  _507
REMARK  205  A    between atoms: _506  and  _509
REMARK  206  A    between atoms: _509  and  _510
REMARK  207  A    between atoms: _513  and  _515
REMARK  208  A    between atoms: _515  and  _516
REMARK  209  A    between atoms: _518  and  _520
REMARK  210  A    between atoms: _520  and  _521
REMARK  211  A    between atoms: _520  and  _523
REMARK  212  A    between atoms: _523  and  _524
REMARK  213  A    between atoms: _524  and  _525
REMARK  214  A    between atoms: _530  and  _532
REMARK  215  A    between atoms: _532  and  _533
REMARK  216  A    between atoms: _532  and  _535
REMARK  217  A    between atoms: _535  and  _536
REMARK  218  A    between atoms: _538  and  _540
REMARK  219  A    between atoms: _540  and  _541
REMARK  220  A    between atoms: _540  and  _543
REMARK  221  A    between atoms: _543  and  _544
REMARK  222  A    between atoms: _549  and  _551
REMARK  223  A    between atoms: _551  and  _552
REMARK  224  A    between atoms: _551  and  _554
REMARK  225  A    between atoms: _554  and  _555
REMARK  226  A    between atoms: _557  and  _559
REMARK  227  A    between atoms: _559  and  _560
REMARK  228  A    between atoms: _559  and  _562
REMARK  229  A    between atoms: _562  and  _563
REMARK  230  A    between atoms: _566  and  _568
REMARK  231  A    between atoms: _568  and  _569
REMARK  232  A    between atoms: _568  and  _571
REMARK  233  A    between atoms: _571  and  _572
REMARK  234  A    between atoms: _578  and  _580
REMARK  235  A    between atoms: _580  and  _581
REMARK  236  A    between atoms: _580  and  _583
REMARK  237  A    between atoms: _583  and  _584
REMARK  238  A    between atoms: _586  and  _588
REMARK  239  A    between atoms: _588  and  _589
REMARK  240  A    between atoms: _588  and  _591
REMARK  241  A    between atoms: _591  and  _592
REMARK  242  A    between atoms: _595  and  _597
REMARK  243  A    between atoms: _597  and  _598
REMARK  244  A    between atoms: _597  and  _600
REMARK  245  A    between atoms: _600  and  _601
REMARK  246  A    between atoms: _607  and  _609
REMARK  247  A    between atoms: _609  and  _610
REMARK  248  A    between atoms: _612  and  _614
REMARK  249  A    between atoms: _614  and  _615
REMARK  250  A    between atoms: _614  and  _617
REMARK  251  A    between atoms: _617  and  _618
REMARK                            x       y       z     vdW  Elec       q    Type
REMARK                         _______ _______ _______ _____ _____    ______ ____
ROOT
ATOM      1  O   HOH     1      12.525   4.327  22.385  0.00  0.00    +0.000 OA
ENDROOT
TORSDOF 0
REMARK  Name = ../refined-set-2016/1bxq/1bxq_pocket.pdb
REMARK  251 active torsions:
REMARK  status: ('A' for Active; 'I' for Inactive)
REMARK    1  A    between atoms: _1  and  _3
REMARK    2  A    between atoms: _3  and  _4
REMARK    3  A    between atoms: _3  and  _6
REMARK    4  A    between atoms: _6  and  _7
REMARK    5  A    between atoms: _10  and  _12
REMARK    6  A    between atoms: _12  and  _13
REMARK    7  A    between atoms: _16  and  _18
REMARK    8  A    between atoms: _18  and  _19
REMARK    9  A    between atoms: _18  and  _21
REMARK   10  A    between atoms: _21  and  _22
REMARK   11  A    between atoms: _27  and  _29
REMARK   12  A    between atoms: _29  and  _30
REMARK   13  A    between atoms: _29  and  _32
REMARK   14  A    between atoms: _32  and  _33
REMARK   15  A    between atoms: _36  and  _38
REMARK   16  A    between atoms: _38  and  _39
REMARK   17  A    between atoms: _38  and  _41
REMARK   18  A    between atoms: _41  and  _42
REMARK   19  A    between atoms: _42  and  _43
REMARK   20  A    between atoms: _46  and  _48
REMARK   21  A    between atoms: _48  and  _49
REMARK   22  A    between atoms: _48  and  _51
REMARK   23  A    between atoms: _51  and  _52
REMARK   24  A    between atoms: _52  and  _53
REMARK   25  A    between atoms: _56  and  _58
REMARK   26  A    between atoms: _58  and  _59
REMARK   27  A    between atoms: _58  and  _61
REMARK   28  A    between atoms: _61  and  _62
REMARK   29  A    between atoms: _67  and  _68
REMARK   30  A    between atoms: _70  and  _72
REMARK   31  A    between atoms: _72  and  _73
REMARK   32  A    between atoms: _72  and  _75
REMARK   33  A    between atoms: _75  and  _76
REMARK   34  A    between atoms: _81  and  _83
REMARK   35  A    between atoms: _83  and  _84
REMARK   36  A    between atoms: _83  and  _86
REMARK   37  A    between atoms: _86  and  _87
REMARK   38  A    between atoms: _93  and  _95
REMARK   39  A    between atoms: _95  and  _96
REMARK   40  A    between atoms: _95  and  _98
REMARK   41  A    between atoms: _98  and  _99
REMARK   42  A    between atoms: _102  and  _104
REMARK   43  A    between atoms: _104  and  _105
REMARK   44  A    between atoms: _104  and  _107
REMARK   45  A    between atoms: _107  and  _108
REMARK   46  A    between atoms: _111  and  _113
REMARK   47  A    between atoms: _113  and  _114
REMARK   48  A    between atoms: _116  and  _118
REMARK   49  A    between atoms: _118  and  _119
REMARK   50  A    between atoms: _118  and  _121
REMARK   51  A    between atoms: _121  and  _122
REMARK   52  A    between atoms: _124  and  _126
REMARK   53  A    between atoms: _126  and  _127
REMARK   54  A    between atoms: _130  and  _132
REMARK   55  A    between atoms: _132  and  _133
REMARK   56  A    between atoms: _132  and  _135
REMARK   57  A    between atoms: _135  and  _136
REMARK   58  A    between atoms: _139  and  _141
REMARK   59  A    between atoms: _141  and  _142
REMARK   60  A    between atoms: _141  and  _144
REMARK   61  A    between atoms: _144  and  _145
REMARK   62  A    between atoms: _155  and  _157
REMARK   63  A    between atoms: _157  and  _158
REMARK   64  A    between atoms: _157  and  _160
REMARK   65  A    between atoms: _160  and  _161
REMARK   66  A    between atoms: _164  and  _166
REMARK   67  A    between atoms: _166  and  _167
REMARK   68  A    between atoms: _166  and  _169
REMARK   69  A    between atoms: _169  and  _170
REMARK   70  A    between atoms: _172  and  _174
REMARK   71  A    between atoms: _174  and  _175
REMARK   72  A    between atoms: _174  and  _177
REMARK   73  A    between atoms: _177  and  _178
REMARK   74  A    between atoms: _183  and  _184
REMARK   75  A    between atoms: _186  and  _188
REMARK   76  A    between atoms: _188  and  _189
REMARK   77  A    between atoms: _191  and  _193
REMARK   78  A    between atoms: _193  and  _194
REMARK   79  A    between atoms: _193  and  _196
REMARK   80  A    between atoms: _196  and  _197
REMARK   81  A    between atoms: _200  and  _202
REMARK   82  A    between atoms: _202  and  _203
REMARK   83  A    between atoms: _205  and  _207
REMARK   84  A    between atoms: _207  and  _208
REMARK   85  A    between atoms: _207  and  _210
REMARK   86  A    between atoms: _210  and  _211
REMARK   87  A    between atoms: _213  and  _215
REMARK   88  A    between atoms: _215  and  _216
REMARK   89  A    between atoms: _215  and  _218
REMARK   90  A    between atoms: _218  and  _219
REMARK   91  A    between atoms: _221  and  _223
REMARK   92  A    between atoms: _223  and  _224
REMARK   93  A    between atoms: _223  and  _226
REMARK   94  A    between atoms: _226  and  _227
REMARK   95  A    between atoms: _229  and  _231
REMARK   96  A    between atoms: _231  and  _232
REMARK   97  A    between atoms: _231  and  _234
REMARK   98  A    between atoms: _234  and  _235
REMARK   99  A    between atoms: _235  and  _236
REMARK  100  A    between atoms: _241  and  _243
REMARK  101  A    between atoms: _243  and  _244
REMARK  102  A    between atoms: _243  and  _246
REMARK  103  A    between atoms: _246  and  _247
REMARK  104  A    between atoms: _253  and  _255
REMARK  105  A    between atoms: _255  and  _256
REMARK  106  A    between atoms: _255  and  _258
REMARK  107  A    between atoms: _258  and  _259
REMARK  108  A    between atoms: _262  and  _264
REMARK  109  A    between atoms: _264  and  _265
REMARK  110  A    between atoms: _264  and  _267
REMARK  111  A    between atoms: _267  and  _268
REMARK  112  A    between atoms: _273  and  _275
REMARK  113  A    between atoms: _275  and  _276
REMARK  114  A    between atoms: _275  and  _278
REMARK  115  A    between atoms: _278  and  _279
REMARK  116  A    between atoms: _284  and  _286
REMARK  117  A    between atoms: _286  and  _287
REMARK  118  A    between atoms: _289  and  _291
REMARK  119  A    between atoms: _291  and  _292
REMARK  120  A    between atoms: _291  and  _294
REMARK  121  A    between atoms: _294  and  _295
REMARK  122  A    between atoms: _298  and  _300
REMARK  123  A    between atoms: _300  and  _301
REMARK  124  A    between atoms: _300  and  _303
REMARK  125  A    between atoms: _303  and  _304
REMARK  126  A    between atoms: _307  and  _309
REMARK  127  A    between atoms: _309  and  _310
REMARK  128  A    between atoms: _312  and  _314
REMARK  129  A    between atoms: _314  and  _315
REMARK  130  A    between atoms: _314  and  _317
REMARK  131  A    between atoms: _317  and  _318
REMARK  132  A    between atoms: _321  and  _323
REMARK  133  A    between atoms: _323  and  _324
REMARK  134  A    between atoms: _327  and  _329
REMARK  135  A    between atoms: _329  and  _330
REMARK  136  A    between atoms: _329  and  _332
REMARK  137  A    between atoms: _332  and  _333
REMARK  138  A    between atoms: _336  and  _338
REMARK  139  A    between atoms: _338  and  _339
REMARK  140  A    between atoms: _338  and  _341
REMARK  141  A    between atoms: _341  and  _342
REMARK  142  A    between atoms: _342  and  _343
REMARK  143  A    between atoms: _348  and  _350
REMARK  144  A    between atoms: _350  and  _351
REMARK  145  A    between atoms: _350  and  _353
REMARK  146  A    between atoms: _353  and  _354
REMARK  147  A    between atoms: _360  and  _362
REMARK  148  A    between atoms: _362  and  _363
REMARK  149  A    between atoms: _362  and  _365
REMARK  150  A    between atoms: _365  and  _366
REMARK  151  A    between atoms: _376  and  _378
REMARK  152  A    between atoms: _378  and  _379
REMARK  153  A    between atoms: _378  and  _381
REMARK  154  A    between atoms: _381  and  _382
REMARK  155  A    between atoms: _385  and  _387
REMARK  156  A    between atoms: _387  and  _388
REMARK  157  A    between atoms: _391  and  _393
REMARK  158  A    between atoms: _393  and  _394
REMARK  159  A    between atoms: _393  and  _396
REMARK  160  A    between atoms: _396  and  _397
REMARK  161  A    between atoms: _400  and  _402
REMARK  162  A    between atoms: _402  and  _403
REMARK  163  A    between atoms: _402  and  _405
REMARK  164  A    between atoms: _405  and  _406
REMARK  165  A    between atoms: _409  and  _411
REMARK  166  A    between atoms: _411  and  _412
REMARK  167  A    between atoms: _414  and  _416
REMARK  168  A    between atoms: _416  and  _417
REMARK  169  A    between atoms: _416  and  _419
REMARK  170  A    between atoms: _419  and  _420
REMARK  171  A    between atoms: _423  and  _425
REMARK  172  A    between atoms: _425  and  _426
REMARK  173  A    between atoms: _425  and  _428
REMARK  174  A    between atoms: _428  and  _429
REMARK  175  A    between atoms: _432  and  _434
REMARK  176  A    between atoms: _434  and  _435
REMARK  177  A    between atoms: _434  and  _437
REMARK  178  A    between atoms: _437  and  _438
REMARK  179  A    between atoms: _441  and  _443
REMARK  180  A    between atoms: _443  and  _444
REMARK  181  A    between atoms: _443  and  _446
REMARK  182  A    between atoms: _446  and  _447
REMARK  183  A    between atoms: _450  and  _452
REMARK  184  A    between atoms: _452  and  _453
REMARK  185  A    between atoms: _452  and  _455
REMARK  186  A    between atoms: _455  and  _456
REMARK  187  A    between atoms: _459  and  _461
REMARK  188  A    between atoms: _461  and  _462
REMARK  189  A    between atoms: _465  and  _467
REMARK  190  A    between atoms: _467  and  _468
REMARK  191  A    between atoms: _470  and  _472
REMARK  192  A    between atoms: _472  and  _473
REMARK  193  A    between atoms: _475  and  _477
REMARK  194  A    between atoms: _477  and  _478
REMARK  195  A    between atoms: _477  and  _480
REMARK  196  A    between atoms: _480  and  _481
REMARK  197  A    between atoms: _486  and  _487
REMARK  198  A    between atoms: _490  and  _491
REMARK  199  A    between atoms: _496  and  _498
REMARK  200  A    between atoms: _498  and  _499
REMARK  201  A    between atoms: _498  and  _501
REMARK  202  A    between atoms: _501  and  _502
REMARK  203  A    between atoms: _504  and  _506
REMARK  204  A    between atoms: _506  and  _507
REMARK  205  A    between atoms: _506  and  _509
REMARK  206  A    between atoms: _509  and  _510
REMARK  207  A    between atoms: _513  and  _515
REMARK  208  A    between atoms: _515  and  _516
REMARK  209  A    between atoms: _518  and  _520
REMARK  210  A    between atoms: _520  and  _521
REMARK  211  A    between atoms: _520  and  _523
REMARK  212  A    between atoms: _523  and  _524
REMARK  213  A    between atoms: _524  and  _525
REMARK  214  A    between atoms: _530  and  _532
REMARK  215  A    between atoms: _532  and  _533
REMARK  216  A    between atoms: _532  and  _535
REMARK  217  A    between atoms: _535  and  _536
REMARK  218  A    between atoms: _538  and  _540
REMARK  219  A    between atoms: _540  and  _541
REMARK  220  A    between atoms: _540  and  _543
REMARK  221  A    between atoms: _543  and  _544
REMARK  222  A    between atoms: _549  and  _551
REMARK  223  A    between atoms: _551  and  _552
REMARK  224  A    between atoms: _551  and  _554
REMARK  225  A    between atoms: _554  and  _555
REMARK  226  A    between atoms: _557  and  _559
REMARK  227  A    between atoms: _559  and  _560
REMARK  228  A    between atoms: _559  and  _562
REMARK  229  A    between atoms: _562  and  _563
REMARK  230  A    between atoms: _566  and  _568
REMARK  231  A    between atoms: _568  and  _569
REMARK  232  A    between atoms: _568  and  _571
REMARK  233  A    between atoms: _571  and  _572
REMARK  234  A    between atoms: _578  and  _580
REMARK  235  A    between atoms: _580  and  _581
REMARK  236  A    between atoms: _580  and  _583
REMARK  237  A    between atoms: _583  and  _584
REMARK  238  A    between atoms: _586  and  _588
REMARK  239  A    between atoms: _588  and  _589
REMARK  240  A    between atoms: _588  and  _591
REMARK  241  A    between atoms: _591  and  _592
REMARK  242  A    between atoms: _595  and  _597
REMARK  243  A    between atoms: _597  and  _598
REMARK  244  A    between atoms: _597  and  _600
REMARK  245  A    between atoms: _600  and  _601
REMARK  246  A    between atoms: _607  and  _609
REMARK  247  A    between atoms: _609  and  _610
REMARK  248  A    between atoms: _612  and  _614
REMARK  249  A    between atoms: _614  and  _615
REMARK  250  A    between atoms: _614  and  _617
REMARK  251  A    between atoms: _617  and  _618
REMARK                            x       y       z     vdW  Elec       q    Type
REMARK                         _______ _______ _______ _____ _____    ______ ____
ROOT
ATOM      1  O   HOH     1      16.826   0.752  18.805  0.00  0.00    +0.000 OA
ENDROOT
TORSDOF 0
REMARK  Name = ../refined-set-2016/1bxq/1bxq_pocket.pdb
REMARK  251 active torsions:
REMARK  status: ('A' for Active; 'I' for Inactive)
REMARK    1  A    between atoms: _1  and  _3
REMARK    2  A    between atoms: _3  and  _4
REMARK    3  A    between atoms: _3  and  _6
REMARK    4  A    between atoms: _6  and  _7
REMARK    5  A    between atoms: _10  and  _12
REMARK    6  A    between atoms: _12  and  _13
REMARK    7  A    between atoms: _16  and  _18
REMARK    8  A    between atoms: _18  and  _19
REMARK    9  A    between atoms: _18  and  _21
REMARK   10  A    between atoms: _21  and  _22
REMARK   11  A    between atoms: _27  and  _29
REMARK   12  A    between atoms: _29  and  _30
REMARK   13  A    between atoms: _29  and  _32
REMARK   14  A    between atoms: _32  and  _33
REMARK   15  A    between atoms: _36  and  _38
REMARK   16  A    between atoms: _38  and  _39
REMARK   17  A    between atoms: _38  and  _41
REMARK   18  A    between atoms: _41  and  _42
REMARK   19  A    between atoms: _42  and  _43
REMARK   20  A    between atoms: _46  and  _48
REMARK   21  A    between atoms: _48  and  _49
REMARK   22  A    between atoms: _48  and  _51
REMARK   23  A    between atoms: _51  and  _52
REMARK   24  A    between atoms: _52  and  _53
REMARK   25  A    between atoms: _56  and  _58
REMARK   26  A    between atoms: _58  and  _59
REMARK   27  A    between atoms: _58  and  _61
REMARK   28  A    between atoms: _61  and  _62
REMARK   29  A    between atoms: _67  and  _68
REMARK   30  A    between atoms: _70  and  _72
REMARK   31  A    between atoms: _72  and  _73
REMARK   32  A    between atoms: _72  and  _75
REMARK   33  A    between atoms: _75  and  _76
REMARK   34  A    between atoms: _81  and  _83
REMARK   35  A    between atoms: _83  and  _84
REMARK   36  A    between atoms: _83  and  _86
REMARK   37  A    between atoms: _86  and  _87
REMARK   38  A    between atoms: _93  and  _95
REMARK   39  A    between atoms: _95  and  _96
REMARK   40  A    between atoms: _95  and  _98
REMARK   41  A    between atoms: _98  and  _99
REMARK   42  A    between atoms: _102  and  _104
REMARK   43  A    between atoms: _104  and  _105
REMARK   44  A    between atoms: _104  and  _107
REMARK   45  A    between atoms: _107  and  _108
REMARK   46  A    between atoms: _111  and  _113
REMARK   47  A    between atoms: _113  and  _114
REMARK   48  A    between atoms: _116  and  _118
REMARK   49  A    between atoms: _118  and  _119
REMARK   50  A    between atoms: _118  and  _121
REMARK   51  A    between atoms: _121  and  _122
REMARK   52  A    between atoms: _124  and  _126
REMARK   53  A    between atoms: _126  and  _127
REMARK   54  A    between atoms: _130  and  _132
REMARK   55  A    between atoms: _132  and  _133
REMARK   56  A    between atoms: _132  and  _135
REMARK   57  A    between atoms: _135  and  _136
REMARK   58  A    between atoms: _139  and  _141
REMARK   59  A    between atoms: _141  and  _142
REMARK   60  A    between atoms: _141  and  _144
REMARK   61  A    between atoms: _144  and  _145
REMARK   62  A    between atoms: _155  and  _157
REMARK   63  A    between atoms: _157  and  _158
REMARK   64  A    between atoms: _157  and  _160
REMARK   65  A    between atoms: _160  and  _161
REMARK   66  A    between atoms: _164  and  _166
REMARK   67  A    between atoms: _166  and  _167
REMARK   68  A    between atoms: _166  and  _169
REMARK   69  A    between atoms: _169  and  _170
REMARK   70  A    between atoms: _172  and  _174
REMARK   71  A    between atoms: _174  and  _175
REMARK   72  A    between atoms: _174  and  _177
REMARK   73  A    between atoms: _177  and  _178
REMARK   74  A    between atoms: _183  and  _184
REMARK   75  A    between atoms: _186  and  _188
REMARK   76  A    between atoms: _188  and  _189
REMARK   77  A    between atoms: _191  and  _193
REMARK   78  A    between atoms: _193  and  _194
REMARK   79  A    between atoms: _193  and  _196
REMARK   80  A    between atoms: _196  and  _197
REMARK   81  A    between atoms: _200  and  _202
REMARK   82  A    between atoms: _202  and  _203
REMARK   83  A    between atoms: _205  and  _207
REMARK   84  A    between atoms: _207  and  _208
REMARK   85  A    between atoms: _207  and  _210
REMARK   86  A    between atoms: _210  and  _211
REMARK   87  A    between atoms: _213  and  _215
REMARK   88  A    between atoms: _215  and  _216
REMARK   89  A    between atoms: _215  and  _218
REMARK   90  A    between atoms: _218  and  _219
REMARK   91  A    between atoms: _221  and  _223
REMARK   92  A    between atoms: _223  and  _224
REMARK   93  A    between atoms: _223  and  _226
REMARK   94  A    between atoms: _226  and  _227
REMARK   95  A    between atoms: _229  and  _231
REMARK   96  A    between atoms: _231  and  _232
REMARK   97  A    between atoms: _231  and  _234
REMARK   98  A    between atoms: _234  and  _235
REMARK   99  A    between atoms: _235  and  _236
REMARK  100  A    between atoms: _241  and  _243
REMARK  101  A    between atoms: _243  and  _244
REMARK  102  A    between atoms: _243  and  _246
REMARK  103  A    between atoms: _246  and  _247
REMARK  104  A    between atoms: _253  and  _255
REMARK  105  A    between atoms: _255  and  _256
REMARK  106  A    between atoms: _255  and  _258
REMARK  107  A    between atoms: _258  and  _259
REMARK  108  A    between atoms: _262  and  _264
REMARK  109  A    between atoms: _264  and  _265
REMARK  110  A    between atoms: _264  and  _267
REMARK  111  A    between atoms: _267  and  _268
REMARK  112  A    between atoms: _273  and  _275
REMARK  113  A    between atoms: _275  and  _276
REMARK  114  A    between atoms: _275  and  _278
REMARK  115  A    between atoms: _278  and  _279
REMARK  116  A    between atoms: _284  and  _286
REMARK  117  A    between atoms: _286  and  _287
REMARK  118  A    between atoms: _289  and  _291
REMARK  119  A    between atoms: _291  and  _292
REMARK  120  A    between atoms: _291  and  _294
REMARK  121  A    between atoms: _294  and  _295
REMARK  122  A    between atoms: _298  and  _300
REMARK  123  A    between atoms: _300  and  _301
REMARK  124  A    between atoms: _300  and  _303
REMARK  125  A    between atoms: _303  and  _304
REMARK  126  A    between atoms: _307  and  _309
REMARK  127  A    between atoms: _309  and  _310
REMARK  128  A    between atoms: _312  and  _314
REMARK  129  A    between atoms: _314  and  _315
REMARK  130  A    between atoms: _314  and  _317
REMARK  131  A    between atoms: _317  and  _318
REMARK  132  A    between atoms: _321  and  _323
REMARK  133  A    between atoms: _323  and  _324
REMARK  134  A    between atoms: _327  and  _329
REMARK  135  A    between atoms: _329  and  _330
REMARK  136  A    between atoms: _329  and  _332
REMARK  137  A    between atoms: _332  and  _333
REMARK  138  A    between atoms: _336  and  _338
REMARK  139  A    between atoms: _338  and  _339
REMARK  140  A    between atoms: _338  and  _341
REMARK  141  A    between atoms: _341  and  _342
REMARK  142  A    between atoms: _342  and  _343
REMARK  143  A    between atoms: _348  and  _350
REMARK  144  A    between atoms: _350  and  _351
REMARK  145  A    between atoms: _350  and  _353
REMARK  146  A    between atoms: _353  and  _354
REMARK  147  A    between atoms: _360  and  _362
REMARK  148  A    between atoms: _362  and  _363
REMARK  149  A    between atoms: _362  and  _365
REMARK  150  A    between atoms: _365  and  _366
REMARK  151  A    between atoms: _376  and  _378
REMARK  152  A    between atoms: _378  and  _379
REMARK  153  A    between atoms: _378  and  _381
REMARK  154  A    between atoms: _381  and  _382
REMARK  155  A    between atoms: _385  and  _387
REMARK  156  A    between atoms: _387  and  _388
REMARK  157  A    between atoms: _391  and  _393
REMARK  158  A    between atoms: _393  and  _394
REMARK  159  A    between atoms: _393  and  _396
REMARK  160  A    between atoms: _396  and  _397
REMARK  161  A    between atoms: _400  and  _402
REMARK  162  A    between atoms: _402  and  _403
REMARK  163  A    between atoms: _402  and  _405
REMARK  164  A    between atoms: _405  and  _406
REMARK  165  A    between atoms: _409  and  _411
REMARK  166  A    between atoms: _411  and  _412
REMARK  167  A    between atoms: _414  and  _416
REMARK  168  A    between atoms: _416  and  _417
REMARK  169  A    between atoms: _416  and  _419
REMARK  170  A    between atoms: _419  and  _420
REMARK  171  A    between atoms: _423  and  _425
REMARK  172  A    between atoms: _425  and  _426
REMARK  173  A    between atoms: _425  and  _428
REMARK  174  A    between atoms: _428  and  _429
REMARK  175  A    between atoms: _432  and  _434
REMARK  176  A    between atoms: _434  and  _435
REMARK  177  A    between atoms: _434  and  _437
REMARK  178  A    between atoms: _437  and  _438
REMARK  179  A    between atoms: _441  and  _443
REMARK  180  A    between atoms: _443  and  _444
REMARK  181  A    between atoms: _443  and  _446
REMARK  182  A    between atoms: _446  and  _447
REMARK  183  A    between atoms: _450  and  _452
REMARK  184  A    between atoms: _452  and  _453
REMARK  185  A    between atoms: _452  and  _455
REMARK  186  A    between atoms: _455  and  _456
REMARK  187  A    between atoms: _459  and  _461
REMARK  188  A    between atoms: _461  and  _462
REMARK  189  A    between atoms: _465  and  _467
REMARK  190  A    between atoms: _467  and  _468
REMARK  191  A    between atoms: _470  and  _472
REMARK  192  A    between atoms: _472  and  _473
REMARK  193  A    between atoms: _475  and  _477
REMARK  194  A    between atoms: _477  and  _478
REMARK  195  A    between atoms: _477  and  _480
REMARK  196  A    between atoms: _480  and  _481
REMARK  197  A    between atoms: _486  and  _487
REMARK  198  A    between atoms: _490  and  _491
REMARK  199  A    between atoms: _496  and  _498
REMARK  200  A    between atoms: _498  and  _499
REMARK  201  A    between atoms: _498  and  _501
REMARK  202  A    between atoms: _501  and  _502
REMARK  203  A    between atoms: _504  and  _506
REMARK  204  A    between atoms: _506  and  _507
REMARK  205  A    between atoms: _506  and  _509
REMARK  206  A    between atoms: _509  and  _510
REMARK  207  A    between atoms: _513  and  _515
REMARK  208  A    between atoms: _515  and  _516
REMARK  209  A    between atoms: _518  and  _520
REMARK  210  A    between atoms: _520  and  _521
REMARK  211  A    between atoms: _520  and  _523
REMARK  212  A    between atoms: _523  and  _524
REMARK  213  A    between atoms: _524  and  _525
REMARK  214  A    between atoms: _530  and  _532
REMARK  215  A    between atoms: _532  and  _533
REMARK  216  A    between atoms: _532  and  _535
REMARK  217  A    between atoms: _535  and  _536
REMARK  218  A    between atoms: _538  and  _540
REMARK  219  A    between atoms: _540  and  _541
REMARK  220  A    between atoms: _540  and  _543
REMARK  221  A    between atoms: _543  and  _544
REMARK  222  A    between atoms: _549  and  _551
REMARK  223  A    between atoms: _551  and  _552
REMARK  224  A    between atoms: _551  and  _554
REMARK  225  A    between atoms: _554  and  _555
REMARK  226  A    between atoms: _557  and  _559
REMARK  227  A    between atoms: _559  and  _560
REMARK  228  A    between atoms: _559  and  _562
REMARK  229  A    between atoms: _562  and  _563
REMARK  230  A    between atoms: _566  and  _568
REMARK  231  A    between atoms: _568  and  _569
REMARK  232  A    between atoms: _568  and  _571
REMARK  233  A    between atoms: _571  and  _572
REMARK  234  A    between atoms: _578  and  _580
REMARK  235  A    between atoms: _580  and  _581
REMARK  236  A    between atoms: _580  and  _583
REMARK  237  A    between atoms: _583  and  _584
REMARK  238  A    between atoms: _586  and  _588
REMARK  239  A    between atoms: _588  and  _589
REMARK  240  A    between atoms: _588  and  _591
REMARK  241  A    between atoms: _591  and  _592
REMARK  242  A    between atoms: _595  and  _597
REMARK  243  A    between atoms: _597  and  _598
REMARK  244  A    between atoms: _597  and  _600
REMARK  245  A    between atoms: _600  and  _601
REMARK  246  A    between atoms: _607  and  _609
REMARK  247  A    between atoms: _609  and  _610
REMARK  248  A    between atoms: _612  and  _614
REMARK  249  A    between atoms: _614  and  _615
REMARK  250  A    between atoms: _614  and  _617
REMARK  251  A    between atoms: _617  and  _618
REMARK                            x       y       z     vdW  Elec       q    Type
REMARK                         _______ _______ _______ _____ _____    ______ ____
ROOT
ATOM      1  O   HOH     1      14.310   2.767  22.616  0.00  0.00    +0.000 OA
ENDROOT
TORSDOF 0
REMARK  Name = ../refined-set-2016/1bxq/1bxq_pocket.pdb
REMARK  251 active torsions:
REMARK  status: ('A' for Active; 'I' for Inactive)
REMARK    1  A    between atoms: _1  and  _3
REMARK    2  A    between atoms: _3  and  _4
REMARK    3  A    between atoms: _3  and  _6
REMARK    4  A    between atoms: _6  and  _7
REMARK    5  A    between atoms: _10  and  _12
REMARK    6  A    between atoms: _12  and  _13
REMARK    7  A    between atoms: _16  and  _18
REMARK    8  A    between atoms: _18  and  _19
REMARK    9  A    between atoms: _18  and  _21
REMARK   10  A    between atoms: _21  and  _22
REMARK   11  A    between atoms: _27  and  _29
REMARK   12  A    between atoms: _29  and  _30
REMARK   13  A    between atoms: _29  and  _32
REMARK   14  A    between atoms: _32  and  _33
REMARK   15  A    between atoms: _36  and  _38
REMARK   16  A    between atoms: _38  and  _39
REMARK   17  A    between atoms: _38  and  _41
REMARK   18  A    between atoms: _41  and  _42
REMARK   19  A    between atoms: _42  and  _43
REMARK   20  A    between atoms: _46  and  _48
REMARK   21  A    between atoms: _48  and  _49
REMARK   22  A    between atoms: _48  and  _51
REMARK   23  A    between atoms: _51  and  _52
REMARK   24  A    between atoms: _52  and  _53
REMARK   25  A    between atoms: _56  and  _58
REMARK   26  A    between atoms: _58  and  _59
REMARK   27  A    between atoms: _58  and  _61
REMARK   28  A    between atoms: _61  and  _62
REMARK   29  A    between atoms: _67  and  _68
REMARK   30  A    between atoms: _70  and  _72
REMARK   31  A    between atoms: _72  and  _73
REMARK   32  A    between atoms: _72  and  _75
REMARK   33  A    between atoms: _75  and  _76
REMARK   34  A    between atoms: _81  and  _83
REMARK   35  A    between atoms: _83  and  _84
REMARK   36  A    between atoms: _83  and  _86
REMARK   37  A    between atoms: _86  and  _87
REMARK   38  A    between atoms: _93  and  _95
REMARK   39  A    between atoms: _95  and  _96
REMARK   40  A    between atoms: _95  and  _98
REMARK   41  A    between atoms: _98  and  _99
REMARK   42  A    between atoms: _102  and  _104
REMARK   43  A    between atoms: _104  and  _105
REMARK   44  A    between atoms: _104  and  _107
REMARK   45  A    between atoms: _107  and  _108
REMARK   46  A    between atoms: _111  and  _113
REMARK   47  A    between atoms: _113  and  _114
REMARK   48  A    between atoms: _116  and  _118
REMARK   49  A    between atoms: _118  and  _119
REMARK   50  A    between atoms: _118  and  _121
REMARK   51  A    between atoms: _121  and  _122
REMARK   52  A    between atoms: _124  and  _126
REMARK   53  A    between atoms: _126  and  _127
REMARK   54  A    between atoms: _130  and  _132
REMARK   55  A    between atoms: _132  and  _133
REMARK   56  A    between atoms: _132  and  _135
REMARK   57  A    between atoms: _135  and  _136
REMARK   58  A    between atoms: _139  and  _141
REMARK   59  A    between atoms: _141  and  _142
REMARK   60  A    between atoms: _141  and  _144
REMARK   61  A    between atoms: _144  and  _145
REMARK   62  A    between atoms: _155  and  _157
REMARK   63  A    between atoms: _157  and  _158
REMARK   64  A    between atoms: _157  and  _160
REMARK   65  A    between atoms: _160  and  _161
REMARK   66  A    between atoms: _164  and  _166
REMARK   67  A    between atoms: _166  and  _167
REMARK   68  A    between atoms: _166  and  _169
REMARK   69  A    between atoms: _169  and  _170
REMARK   70  A    between atoms: _172  and  _174
REMARK   71  A    between atoms: _174  and  _175
REMARK   72  A    between atoms: _174  and  _177
REMARK   73  A    between atoms: _177  and  _178
REMARK   74  A    between atoms: _183  and  _184
REMARK   75  A    between atoms: _186  and  _188
REMARK   76  A    between atoms: _188  and  _189
REMARK   77  A    between atoms: _191  and  _193
REMARK   78  A    between atoms: _193  and  _194
REMARK   79  A    between atoms: _193  and  _196
REMARK   80  A    between atoms: _196  and  _197
REMARK   81  A    between atoms: _200  and  _202
REMARK   82  A    between atoms: _202  and  _203
REMARK   83  A    between atoms: _205  and  _207
REMARK   84  A    between atoms: _207  and  _208
REMARK   85  A    between atoms: _207  and  _210
REMARK   86  A    between atoms: _210  and  _211
REMARK   87  A    between atoms: _213  and  _215
REMARK   88  A    between atoms: _215  and  _216
REMARK   89  A    between atoms: _215  and  _218
REMARK   90  A    between atoms: _218  and  _219
REMARK   91  A    between atoms: _221  and  _223
REMARK   92  A    between atoms: _223  and  _224
REMARK   93  A    between atoms: _223  and  _226
REMARK   94  A    between atoms: _226  and  _227
REMARK   95  A    between atoms: _229  and  _231
REMARK   96  A    between atoms: _231  and  _232
REMARK   97  A    between atoms: _231  and  _234
REMARK   98  A    between atoms: _234  and  _235
REMARK   99  A    between atoms: _235  and  _236
REMARK  100  A    between atoms: _241  and  _243
REMARK  101  A    between atoms: _243  and  _244
REMARK  102  A    between atoms: _243  and  _246
REMARK  103  A    between atoms: _246  and  _247
REMARK  104  A    between atoms: _253  and  _255
REMARK  105  A    between atoms: _255  and  _256
REMARK  106  A    between atoms: _255  and  _258
REMARK  107  A    between atoms: _258  and  _259
REMARK  108  A    between atoms: _262  and  _264
REMARK  109  A    between atoms: _264  and  _265
REMARK  110  A    between atoms: _264  and  _267
REMARK  111  A    between atoms: _267  and  _268
REMARK  112  A    between atoms: _273  and  _275
REMARK  113  A    between atoms: _275  and  _276
REMARK  114  A    between atoms: _275  and  _278
REMARK  115  A    between atoms: _278  and  _279
REMARK  116  A    between atoms: _284  and  _286
REMARK  117  A    between atoms: _286  and  _287
REMARK  118  A    between atoms: _289  and  _291
REMARK  119  A    between atoms: _291  and  _292
REMARK  120  A    between atoms: _291  and  _294
REMARK  121  A    between atoms: _294  and  _295
REMARK  122  A    between atoms: _298  and  _300
REMARK  123  A    between atoms: _300  and  _301
REMARK  124  A    between atoms: _300  and  _303
REMARK  125  A    between atoms: _303  and  _304
REMARK  126  A    between atoms: _307  and  _309
REMARK  127  A    between atoms: _309  and  _310
REMARK  128  A    between atoms: _312  and  _314
REMARK  129  A    between atoms: _314  and  _315
REMARK  130  A    between atoms: _314  and  _317
REMARK  131  A    between atoms: _317  and  _318
REMARK  132  A    between atoms: _321  and  _323
REMARK  133  A    between atoms: _323  and  _324
REMARK  134  A    between atoms: _327  and  _329
REMARK  135  A    between atoms: _329  and  _330
REMARK  136  A    between atoms: _329  and  _332
REMARK  137  A    between atoms: _332  and  _333
REMARK  138  A    between atoms: _336  and  _338
REMARK  139  A    between atoms: _338  and  _339
REMARK  140  A    between atoms: _338  and  _341
REMARK  141  A    between atoms: _341  and  _342
REMARK  142  A    between atoms: _342  and  _343
REMARK  143  A    between atoms: _348  and  _350
REMARK  144  A    between atoms: _350  and  _351
REMARK  145  A    between atoms: _350  and  _353
REMARK  146  A    between atoms: _353  and  _354
REMARK  147  A    between atoms: _360  and  _362
REMARK  148  A    between atoms: _362  and  _363
REMARK  149  A    between atoms: _362  and  _365
REMARK  150  A    between atoms: _365  and  _366
REMARK  151  A    between atoms: _376  and  _378
REMARK  152  A    between atoms: _378  and  _379
REMARK  153  A    between atoms: _378  and  _381
REMARK  154  A    between atoms: _381  and  _382
REMARK  155  A    between atoms: _385  and  _387
REMARK  156  A    between atoms: _387  and  _388
REMARK  157  A    between atoms: _391  and  _393
REMARK  158  A    between atoms: _393  and  _394
REMARK  159  A    between atoms: _393  and  _396
REMARK  160  A    between atoms: _396  and  _397
REMARK  161  A    between atoms: _400  and  _402
REMARK  162  A    between atoms: _402  and  _403
REMARK  163  A    between atoms: _402  and  _405
REMARK  164  A    between atoms: _405  and  _406
REMARK  165  A    between atoms: _409  and  _411
REMARK  166  A    between atoms: _411  and  _412
REMARK  167  A    between atoms: _414  and  _416
REMARK  168  A    between atoms: _416  and  _417
REMARK  169  A    between atoms: _416  and  _419
REMARK  170  A    between atoms: _419  and  _420
REMARK  171  A    between atoms: _423  and  _425
REMARK  172  A    between atoms: _425  and  _426
REMARK  173  A    between atoms: _425  and  _428
REMARK  174  A    between atoms: _428  and  _429
REMARK  175  A    between atoms: _432  and  _434
REMARK  176  A    between atoms: _434  and  _435
REMARK  177  A    between atoms: _434  and  _437
REMARK  178  A    between atoms: _437  and  _438
REMARK  179  A    between atoms: _441  and  _443
REMARK  180  A    between atoms: _443  and  _444
REMARK  181  A    between atoms: _443  and  _446
REMARK  182  A    between atoms: _446  and  _447
REMARK  183  A    between atoms: _450  and  _452
REMARK  184  A    between atoms: _452  and  _453
REMARK  185  A    between atoms: _452  and  _455
REMARK  186  A    between atoms: _455  and  _456
REMARK  187  A    between atoms: _459  and  _461
REMARK  188  A    between atoms: _461  and  _462
REMARK  189  A    between atoms: _465  and  _467
REMARK  190  A    between atoms: _467  and  _468
REMARK  191  A    between atoms: _470  and  _472
REMARK  192  A    between atoms: _472  and  _473
REMARK  193  A    between atoms: _475  and  _477
REMARK  194  A    between atoms: _477  and  _478
REMARK  195  A    between atoms: _477  and  _480
REMARK  196  A    between atoms: _480  and  _481
REMARK  197  A    between atoms: _486  and  _487
REMARK  198  A    between atoms: _490  and  _491
REMARK  199  A    between atoms: _496  and  _498
REMARK  200  A    between atoms: _498  and  _499
REMARK  201  A    between atoms: _498  and  _501
REMARK  202  A    between atoms: _501  and  _502
REMARK  203  A    between atoms: _504  and  _506
REMARK  204  A    between atoms: _506  and  _507
REMARK  205  A    between atoms: _506  and  _509
REMARK  206  A    between atoms: _509  and  _510
REMARK  207  A    between atoms: _513  and  _515
REMARK  208  A    between atoms: _515  and  _516
REMARK  209  A    between atoms: _518  and  _520
REMARK  210  A    between atoms: _520  and  _521
REMARK  211  A    between atoms: _520  and  _523
REMARK  212  A    between atoms: _523  and  _524
REMARK  213  A    between atoms: _524  and  _525
REMARK  214  A    between atoms: _530  and  _532
REMARK  215  A    between atoms: _532  and  _533
REMARK  216  A    between atoms: _532  and  _535
REMARK  217  A    between atoms: _535  and  _536
REMARK  218  A    between atoms: _538  and  _540
REMARK  219  A    between atoms: _540  and  _541
REMARK  220  A    between atoms: _540  and  _543
REMARK  221  A    between atoms: _543  and  _544
REMARK  222  A    between atoms: _549  and  _551
REMARK  223  A    between atoms: _551  and  _552
REMARK  224  A    between atoms: _551  and  _554
REMARK  225  A    between atoms: _554  and  _555
REMARK  226  A    between atoms: _557  and  _559
REMARK  227  A    between atoms: _559  and  _560
REMARK  228  A    between atoms: _559  and  _562
REMARK  229  A    between atoms: _562  and  _563
REMARK  230  A    between atoms: _566  and  _568
REMARK  231  A    between atoms: _568  and  _569
REMARK  232  A    between atoms: _568  and  _571
REMARK  233  A    between atoms: _571  and  _572
REMARK  234  A    between atoms: _578  and  _580
REMARK  235  A    between atoms: _580  and  _581
REMARK  236  A    between atoms: _580  and  _583
REMARK  237  A    between atoms: _583  and  _584
REMARK  238  A    between atoms: _586  and  _588
REMARK  239  A    between atoms: _588  and  _589
REMARK  240  A    between atoms: _588  and  _591
REMARK  241  A    between atoms: _591  and  _592
REMARK  242  A    between atoms: _595  and  _597
REMARK  243  A    between atoms: _597  and  _598
REMARK  244  A    between atoms: _597  and  _600
REMARK  245  A    between atoms: _600  and  _601
REMARK  246  A    between atoms: _607  and  _609
REMARK  247  A    between atoms: _609  and  _610
REMARK  248  A    between atoms: _612  and  _614
REMARK  249  A    between atoms: _614  and  _615
REMARK  250  A    between atoms: _614  and  _617
REMARK  251  A    between atoms: _617  and  _618
REMARK                            x       y       z     vdW  Elec       q    Type
REMARK                         _______ _______ _______ _____ _____    ______ ____
ROOT
ATOM      1  O   HOH     1      14.065   6.624  22.399  0.00  0.00    +0.000 OA
ENDROOT
TORSDOF 0
REMARK  Name = ../refined-set-2016/1bxq/1bxq_pocket.pdb
REMARK  251 active torsions:
REMARK  status: ('A' for Active; 'I' for Inactive)
REMARK    1  A    between atoms: _1  and  _3
REMARK    2  A    between atoms: _3  and  _4
REMARK    3  A    between atoms: _3  and  _6
REMARK    4  A    between atoms: _6  and  _7
REMARK    5  A    between atoms: _10  and  _12
REMARK    6  A    between atoms: _12  and  _13
REMARK    7  A    between atoms: _16  and  _18
REMARK    8  A    between atoms: _18  and  _19
REMARK    9  A    between atoms: _18  and  _21
REMARK   10  A    between atoms: _21  and  _22
REMARK   11  A    between atoms: _27  and  _29
REMARK   12  A    between atoms: _29  and  _30
REMARK   13  A    between atoms: _29  and  _32
REMARK   14  A    between atoms: _32  and  _33
REMARK   15  A    between atoms: _36  and  _38
REMARK   16  A    between atoms: _38  and  _39
REMARK   17  A    between atoms: _38  and  _41
REMARK   18  A    between atoms: _41  and  _42
REMARK   19  A    between atoms: _42  and  _43
REMARK   20  A    between atoms: _46  and  _48
REMARK   21  A    between atoms: _48  and  _49
REMARK   22  A    between atoms: _48  and  _51
REMARK   23  A    between atoms: _51  and  _52
REMARK   24  A    between atoms: _52  and  _53
REMARK   25  A    between atoms: _56  and  _58
REMARK   26  A    between atoms: _58  and  _59
REMARK   27  A    between atoms: _58  and  _61
REMARK   28  A    between atoms: _61  and  _62
REMARK   29  A    between atoms: _67  and  _68
REMARK   30  A    between atoms: _70  and  _72
REMARK   31  A    between atoms: _72  and  _73
REMARK   32  A    between atoms: _72  and  _75
REMARK   33  A    between atoms: _75  and  _76
REMARK   34  A    between atoms: _81  and  _83
REMARK   35  A    between atoms: _83  and  _84
REMARK   36  A    between atoms: _83  and  _86
REMARK   37  A    between atoms: _86  and  _87
REMARK   38  A    between atoms: _93  and  _95
REMARK   39  A    between atoms: _95  and  _96
REMARK   40  A    between atoms: _95  and  _98
REMARK   41  A    between atoms: _98  and  _99
REMARK   42  A    between atoms: _102  and  _104
REMARK   43  A    between atoms: _104  and  _105
REMARK   44  A    between atoms: _104  and  _107
REMARK   45  A    between atoms: _107  and  _108
REMARK   46  A    between atoms: _111  and  _113
REMARK   47  A    between atoms: _113  and  _114
REMARK   48  A    between atoms: _116  and  _118
REMARK   49  A    between atoms: _118  and  _119
REMARK   50  A    between atoms: _118  and  _121
REMARK   51  A    between atoms: _121  and  _122
REMARK   52  A    between atoms: _124  and  _126
REMARK   53  A    between atoms: _126  and  _127
REMARK   54  A    between atoms: _130  and  _132
REMARK   55  A    between atoms: _132  and  _133
REMARK   56  A    between atoms: _132  and  _135
REMARK   57  A    between atoms: _135  and  _136
REMARK   58  A    between atoms: _139  and  _141
REMARK   59  A    between atoms: _141  and  _142
REMARK   60  A    between atoms: _141  and  _144
REMARK   61  A    between atoms: _144  and  _145
REMARK   62  A    between atoms: _155  and  _157
REMARK   63  A    between atoms: _157  and  _158
REMARK   64  A    between atoms: _157  and  _160
REMARK   65  A    between atoms: _160  and  _161
REMARK   66  A    between atoms: _164  and  _166
REMARK   67  A    between atoms: _166  and  _167
REMARK   68  A    between atoms: _166  and  _169
REMARK   69  A    between atoms: _169  and  _170
REMARK   70  A    between atoms: _172  and  _174
REMARK   71  A    between atoms: _174  and  _175
REMARK   72  A    between atoms: _174  and  _177
REMARK   73  A    between atoms: _177  and  _178
REMARK   74  A    between atoms: _183  and  _184
REMARK   75  A    between atoms: _186  and  _188
REMARK   76  A    between atoms: _188  and  _189
REMARK   77  A    between atoms: _191  and  _193
REMARK   78  A    between atoms: _193  and  _194
REMARK   79  A    between atoms: _193  and  _196
REMARK   80  A    between atoms: _196  and  _197
REMARK   81  A    between atoms: _200  and  _202
REMARK   82  A    between atoms: _202  and  _203
REMARK   83  A    between atoms: _205  and  _207
REMARK   84  A    between atoms: _207  and  _208
REMARK   85  A    between atoms: _207  and  _210
REMARK   86  A    between atoms: _210  and  _211
REMARK   87  A    between atoms: _213  and  _215
REMARK   88  A    between atoms: _215  and  _216
REMARK   89  A    between atoms: _215  and  _218
REMARK   90  A    between atoms: _218  and  _219
REMARK   91  A    between atoms: _221  and  _223
REMARK   92  A    between atoms: _223  and  _224
REMARK   93  A    between atoms: _223  and  _226
REMARK   94  A    between atoms: _226  and  _227
REMARK   95  A    between atoms: _229  and  _231
REMARK   96  A    between atoms: _231  and  _232
REMARK   97  A    between atoms: _231  and  _234
REMARK   98  A    between atoms: _234  and  _235
REMARK   99  A    between atoms: _235  and  _236
REMARK  100  A    between atoms: _241  and  _243
REMARK  101  A    between atoms: _243  and  _244
REMARK  102  A    between atoms: _243  and  _246
REMARK  103  A    between atoms: _246  and  _247
REMARK  104  A    between atoms: _253  and  _255
REMARK  105  A    between atoms: _255  and  _256
REMARK  106  A    between atoms: _255  and  _258
REMARK  107  A    between atoms: _258  and  _259
REMARK  108  A    between atoms: _262  and  _264
REMARK  109  A    between atoms: _264  and  _265
REMARK  110  A    between atoms: _264  and  _267
REMARK  111  A    between atoms: _267  and  _268
REMARK  112  A    between atoms: _273  and  _275
REMARK  113  A    between atoms: _275  and  _276
REMARK  114  A    between atoms: _275  and  _278
REMARK  115  A    between atoms: _278  and  _279
REMARK  116  A    between atoms: _284  and  _286
REMARK  117  A    between atoms: _286  and  _287
REMARK  118  A    between atoms: _289  and  _291
REMARK  119  A    between atoms: _291  and  _292
REMARK  120  A    between atoms: _291  and  _294
REMARK  121  A    between atoms: _294  and  _295
REMARK  122  A    between atoms: _298  and  _300
REMARK  123  A    between atoms: _300  and  _301
REMARK  124  A    between atoms: _300  and  _303
REMARK  125  A    between atoms: _303  and  _304
REMARK  126  A    between atoms: _307  and  _309
REMARK  127  A    between atoms: _309  and  _310
REMARK  128  A    between atoms: _312  and  _314
REMARK  129  A    between atoms: _314  and  _315
REMARK  130  A    between atoms: _314  and  _317
REMARK  131  A    between atoms: _317  and  _318
REMARK  132  A    between atoms: _321  and  _323
REMARK  133  A    between atoms: _323  and  _324
REMARK  134  A    between atoms: _327  and  _329
REMARK  135  A    between atoms: _329  and  _330
REMARK  136  A    between atoms: _329  and  _332
REMARK  137  A    between atoms: _332  and  _333
REMARK  138  A    between atoms: _336  and  _338
REMARK  139  A    between atoms: _338  and  _339
REMARK  140  A    between atoms: _338  and  _341
REMARK  141  A    between atoms: _341  and  _342
REMARK  142  A    between atoms: _342  and  _343
REMARK  143  A    between atoms: _348  and  _350
REMARK  144  A    between atoms: _350  and  _351
REMARK  145  A    between atoms: _350  and  _353
REMARK  146  A    between atoms: _353  and  _354
REMARK  147  A    between atoms: _360  and  _362
REMARK  148  A    between atoms: _362  and  _363
REMARK  149  A    between atoms: _362  and  _365
REMARK  150  A    between atoms: _365  and  _366
REMARK  151  A    between atoms: _376  and  _378
REMARK  152  A    between atoms: _378  and  _379
REMARK  153  A    between atoms: _378  and  _381
REMARK  154  A    between atoms: _381  and  _382
REMARK  155  A    between atoms: _385  and  _387
REMARK  156  A    between atoms: _387  and  _388
REMARK  157  A    between atoms: _391  and  _393
REMARK  158  A    between atoms: _393  and  _394
REMARK  159  A    between atoms: _393  and  _396
REMARK  160  A    between atoms: _396  and  _397
REMARK  161  A    between atoms: _400  and  _402
REMARK  162  A    between atoms: _402  and  _403
REMARK  163  A    between atoms: _402  and  _405
REMARK  164  A    between atoms: _405  and  _406
REMARK  165  A    between atoms: _409  and  _411
REMARK  166  A    between atoms: _411  and  _412
REMARK  167  A    between atoms: _414  and  _416
REMARK  168  A    between atoms: _416  and  _417
REMARK  169  A    between atoms: _416  and  _419
REMARK  170  A    between atoms: _419  and  _420
REMARK  171  A    between atoms: _423  and  _425
REMARK  172  A    between atoms: _425  and  _426
REMARK  173  A    between atoms: _425  and  _428
REMARK  174  A    between atoms: _428  and  _429
REMARK  175  A    between atoms: _432  and  _434
REMARK  176  A    between atoms: _434  and  _435
REMARK  177  A    between atoms: _434  and  _437
REMARK  178  A    between atoms: _437  and  _438
REMARK  179  A    between atoms: _441  and  _443
REMARK  180  A    between atoms: _443  and  _444
REMARK  181  A    between atoms: _443  and  _446
REMARK  182  A    between atoms: _446  and  _447
REMARK  183  A    between atoms: _450  and  _452
REMARK  184  A    between atoms: _452  and  _453
REMARK  185  A    between atoms: _452  and  _455
REMARK  186  A    between atoms: _455  and  _456
REMARK  187  A    between atoms: _459  and  _461
REMARK  188  A    between atoms: _461  and  _462
REMARK  189  A    between atoms: _465  and  _467
REMARK  190  A    between atoms: _467  and  _468
REMARK  191  A    between atoms: _470  and  _472
REMARK  192  A    between atoms: _472  and  _473
REMARK  193  A    between atoms: _475  and  _477
REMARK  194  A    between atoms: _477  and  _478
REMARK  195  A    between atoms: _477  and  _480
REMARK  196  A    between atoms: _480  and  _481
REMARK  197  A    between atoms: _486  and  _487
REMARK  198  A    between atoms: _490  and  _491
REMARK  199  A    between atoms: _496  and  _498
REMARK  200  A    between atoms: _498  and  _499
REMARK  201  A    between atoms: _498  and  _501
REMARK  202  A    between atoms: _501  and  _502
REMARK  203  A    between atoms: _504  and  _506
REMARK  204  A    between atoms: _506  and  _507
REMARK  205  A    between atoms: _506  and  _509
REMARK  206  A    between atoms: _509  and  _510
REMARK  207  A    between atoms: _513  and  _515
REMARK  208  A    between atoms: _515  and  _516
REMARK  209  A    between atoms: _518  and  _520
REMARK  210  A    between atoms: _520  and  _521
REMARK  211  A    between atoms: _520  and  _523
REMARK  212  A    between atoms: _523  and  _524
REMARK  213  A    between atoms: _524  and  _525
REMARK  214  A    between atoms: _530  and  _532
REMARK  215  A    between atoms: _532  and  _533
REMARK  216  A    between atoms: _532  and  _535
REMARK  217  A    between atoms: _535  and  _536
REMARK  218  A    between atoms: _538  and  _540
REMARK  219  A    between atoms: _540  and  _541
REMARK  220  A    between atoms: _540  and  _543
REMARK  221  A    between atoms: _543  and  _544
REMARK  222  A    between atoms: _549  and  _551
REMARK  223  A    between atoms: _551  and  _552
REMARK  224  A    between atoms: _551  and  _554
REMARK  225  A    between atoms: _554  and  _555
REMARK  226  A    between atoms: _557  and  _559
REMARK  227  A    between atoms: _559  and  _560
REMARK  228  A    between atoms: _559  and  _562
REMARK  229  A    between atoms: _562  and  _563
REMARK  230  A    between atoms: _566  and  _568
REMARK  231  A    between atoms: _568  and  _569
REMARK  232  A    between atoms: _568  and  _571
REMARK  233  A    between atoms: _571  and  _572
REMARK  234  A    between atoms: _578  and  _580
REMARK  235  A    between atoms: _580  and  _581
REMARK  236  A    between atoms: _580  and  _583
REMARK  237  A    between atoms: _583  and  _584
REMARK  238  A    between atoms: _586  and  _588
REMARK  239  A    between atoms: _588  and  _589
REMARK  240  A    between atoms: _588  and  _591
REMARK  241  A    between atoms: _591  and  _592
REMARK  242  A    between atoms: _595  and  _597
REMARK  243  A    between atoms: _597  and  _598
REMARK  244  A    between atoms: _597  and  _600
REMARK  245  A    between atoms: _600  and  _601
REMARK  246  A    between atoms: _607  and  _609
REMARK  247  A    between atoms: _609  and  _610
REMARK  248  A    between atoms: _612  and  _614
REMARK  249  A    between atoms: _614  and  _615
REMARK  250  A    between atoms: _614  and  _617
REMARK  251  A    between atoms: _617  and  _618
REMARK                            x       y       z     vdW  Elec       q    Type
REMARK                         _______ _______ _______ _____ _____    ______ ____
ROOT
ATOM      1  O   HOH     1      29.990  12.934  25.635  0.00  0.00    +0.000 OA
ENDROOT
TORSDOF 0
REMARK  Name = ../refined-set-2016/1bxq/1bxq_pocket.pdb
REMARK  251 active torsions:
REMARK  status: ('A' for Active; 'I' for Inactive)
REMARK    1  A    between atoms: _1  and  _3
REMARK    2  A    between atoms: _3  and  _4
REMARK    3  A    between atoms: _3  and  _6
REMARK    4  A    between atoms: _6  and  _7
REMARK    5  A    between atoms: _10  and  _12
REMARK    6  A    between atoms: _12  and  _13
REMARK    7  A    between atoms: _16  and  _18
REMARK    8  A    between atoms: _18  and  _19
REMARK    9  A    between atoms: _18  and  _21
REMARK   10  A    between atoms: _21  and  _22
REMARK   11  A    between atoms: _27  and  _29
REMARK   12  A    between atoms: _29  and  _30
REMARK   13  A    between atoms: _29  and  _32
REMARK   14  A    between atoms: _32  and  _33
REMARK   15  A    between atoms: _36  and  _38
REMARK   16  A    between atoms: _38  and  _39
REMARK   17  A    between atoms: _38  and  _41
REMARK   18  A    between atoms: _41  and  _42
REMARK   19  A    between atoms: _42  and  _43
REMARK   20  A    between atoms: _46  and  _48
REMARK   21  A    between atoms: _48  and  _49
REMARK   22  A    between atoms: _48  and  _51
REMARK   23  A    between atoms: _51  and  _52
REMARK   24  A    between atoms: _52  and  _53
REMARK   25  A    between atoms: _56  and  _58
REMARK   26  A    between atoms: _58  and  _59
REMARK   27  A    between atoms: _58  and  _61
REMARK   28  A    between atoms: _61  and  _62
REMARK   29  A    between atoms: _67  and  _68
REMARK   30  A    between atoms: _70  and  _72
REMARK   31  A    between atoms: _72  and  _73
REMARK   32  A    between atoms: _72  and  _75
REMARK   33  A    between atoms: _75  and  _76
REMARK   34  A    between atoms: _81  and  _83
REMARK   35  A    between atoms: _83  and  _84
REMARK   36  A    between atoms: _83  and  _86
REMARK   37  A    between atoms: _86  and  _87
REMARK   38  A    between atoms: _93  and  _95
REMARK   39  A    between atoms: _95  and  _96
REMARK   40  A    between atoms: _95  and  _98
REMARK   41  A    between atoms: _98  and  _99
REMARK   42  A    between atoms: _102  and  _104
REMARK   43  A    between atoms: _104  and  _105
REMARK   44  A    between atoms: _104  and  _107
REMARK   45  A    between atoms: _107  and  _108
REMARK   46  A    between atoms: _111  and  _113
REMARK   47  A    between atoms: _113  and  _114
REMARK   48  A    between atoms: _116  and  _118
REMARK   49  A    between atoms: _118  and  _119
REMARK   50  A    between atoms: _118  and  _121
REMARK   51  A    between atoms: _121  and  _122
REMARK   52  A    between atoms: _124  and  _126
REMARK   53  A    between atoms: _126  and  _127
REMARK   54  A    between atoms: _130  and  _132
REMARK   55  A    between atoms: _132  and  _133
REMARK   56  A    between atoms: _132  and  _135
REMARK   57  A    between atoms: _135  and  _136
REMARK   58  A    between atoms: _139  and  _141
REMARK   59  A    between atoms: _141  and  _142
REMARK   60  A    between atoms: _141  and  _144
REMARK   61  A    between atoms: _144  and  _145
REMARK   62  A    between atoms: _155  and  _157
REMARK   63  A    between atoms: _157  and  _158
REMARK   64  A    between atoms: _157  and  _160
REMARK   65  A    between atoms: _160  and  _161
REMARK   66  A    between atoms: _164  and  _166
REMARK   67  A    between atoms: _166  and  _167
REMARK   68  A    between atoms: _166  and  _169
REMARK   69  A    between atoms: _169  and  _170
REMARK   70  A    between atoms: _172  and  _174
REMARK   71  A    between atoms: _174  and  _175
REMARK   72  A    between atoms: _174  and  _177
REMARK   73  A    between atoms: _177  and  _178
REMARK   74  A    between atoms: _183  and  _184
REMARK   75  A    between atoms: _186  and  _188
REMARK   76  A    between atoms: _188  and  _189
REMARK   77  A    between atoms: _191  and  _193
REMARK   78  A    between atoms: _193  and  _194
REMARK   79  A    between atoms: _193  and  _196
REMARK   80  A    between atoms: _196  and  _197
REMARK   81  A    between atoms: _200  and  _202
REMARK   82  A    between atoms: _202  and  _203
REMARK   83  A    between atoms: _205  and  _207
REMARK   84  A    between atoms: _207  and  _208
REMARK   85  A    between atoms: _207  and  _210
REMARK   86  A    between atoms: _210  and  _211
REMARK   87  A    between atoms: _213  and  _215
REMARK   88  A    between atoms: _215  and  _216
REMARK   89  A    between atoms: _215  and  _218
REMARK   90  A    between atoms: _218  and  _219
REMARK   91  A    between atoms: _221  and  _223
REMARK   92  A    between atoms: _223  and  _224
REMARK   93  A    between atoms: _223  and  _226
REMARK   94  A    between atoms: _226  and  _227
REMARK   95  A    between atoms: _229  and  _231
REMARK   96  A    between atoms: _231  and  _232
REMARK   97  A    between atoms: _231  and  _234
REMARK   98  A    between atoms: _234  and  _235
REMARK   99  A    between atoms: _235  and  _236
REMARK  100  A    between atoms: _241  and  _243
REMARK  101  A    between atoms: _243  and  _244
REMARK  102  A    between atoms: _243  and  _246
REMARK  103  A    between atoms: _246  and  _247
REMARK  104  A    between atoms: _253  and  _255
REMARK  105  A    between atoms: _255  and  _256
REMARK  106  A    between atoms: _255  and  _258
REMARK  107  A    between atoms: _258  and  _259
REMARK  108  A    between atoms: _262  and  _264
REMARK  109  A    between atoms: _264  and  _265
REMARK  110  A    between atoms: _264  and  _267
REMARK  111  A    between atoms: _267  and  _268
REMARK  112  A    between atoms: _273  and  _275
REMARK  113  A    between atoms: _275  and  _276
REMARK  114  A    between atoms: _275  and  _278
REMARK  115  A    between atoms: _278  and  _279
REMARK  116  A    between atoms: _284  and  _286
REMARK  117  A    between atoms: _286  and  _287
REMARK  118  A    between atoms: _289  and  _291
REMARK  119  A    between atoms: _291  and  _292
REMARK  120  A    between atoms: _291  and  _294
REMARK  121  A    between atoms: _294  and  _295
REMARK  122  A    between atoms: _298  and  _300
REMARK  123  A    between atoms: _300  and  _301
REMARK  124  A    between atoms: _300  and  _303
REMARK  125  A    between atoms: _303  and  _304
REMARK  126  A    between atoms: _307  and  _309
REMARK  127  A    between atoms: _309  and  _310
REMARK  128  A    between atoms: _312  and  _314
REMARK  129  A    between atoms: _314  and  _315
REMARK  130  A    between atoms: _314  and  _317
REMARK  131  A    between atoms: _317  and  _318
REMARK  132  A    between atoms: _321  and  _323
REMARK  133  A    between atoms: _323  and  _324
REMARK  134  A    between atoms: _327  and  _329
REMARK  135  A    between atoms: _329  and  _330
REMARK  136  A    between atoms: _329  and  _332
REMARK  137  A    between atoms: _332  and  _333
REMARK  138  A    between atoms: _336  and  _338
REMARK  139  A    between atoms: _338  and  _339
REMARK  140  A    between atoms: _338  and  _341
REMARK  141  A    between atoms: _341  and  _342
REMARK  142  A    between atoms: _342  and  _343
REMARK  143  A    between atoms: _348  and  _350
REMARK  144  A    between atoms: _350  and  _351
REMARK  145  A    between atoms: _350  and  _353
REMARK  146  A    between atoms: _353  and  _354
REMARK  147  A    between atoms: _360  and  _362
REMARK  148  A    between atoms: _362  and  _363
REMARK  149  A    between atoms: _362  and  _365
REMARK  150  A    between atoms: _365  and  _366
REMARK  151  A    between atoms: _376  and  _378
REMARK  152  A    between atoms: _378  and  _379
REMARK  153  A    between atoms: _378  and  _381
REMARK  154  A    between atoms: _381  and  _382
REMARK  155  A    between atoms: _385  and  _387
REMARK  156  A    between atoms: _387  and  _388
REMARK  157  A    between atoms: _391  and  _393
REMARK  158  A    between atoms: _393  and  _394
REMARK  159  A    between atoms: _393  and  _396
REMARK  160  A    between atoms: _396  and  _397
REMARK  161  A    between atoms: _400  and  _402
REMARK  162  A    between atoms: _402  and  _403
REMARK  163  A    between atoms: _402  and  _405
REMARK  164  A    between atoms: _405  and  _406
REMARK  165  A    between atoms: _409  and  _411
REMARK  166  A    between atoms: _411  and  _412
REMARK  167  A    between atoms: _414  and  _416
REMARK  168  A    between atoms: _416  and  _417
REMARK  169  A    between atoms: _416  and  _419
REMARK  170  A    between atoms: _419  and  _420
REMARK  171  A    between atoms: _423  and  _425
REMARK  172  A    between atoms: _425  and  _426
REMARK  173  A    between atoms: _425  and  _428
REMARK  174  A    between atoms: _428  and  _429
REMARK  175  A    between atoms: _432  and  _434
REMARK  176  A    between atoms: _434  and  _435
REMARK  177  A    between atoms: _434  and  _437
REMARK  178  A    between atoms: _437  and  _438
REMARK  179  A    between atoms: _441  and  _443
REMARK  180  A    between atoms: _443  and  _444
REMARK  181  A    between atoms: _443  and  _446
REMARK  182  A    between atoms: _446  and  _447
REMARK  183  A    between atoms: _450  and  _452
REMARK  184  A    between atoms: _452  and  _453
REMARK  185  A    between atoms: _452  and  _455
REMARK  186  A    between atoms: _455  and  _456
REMARK  187  A    between atoms: _459  and  _461
REMARK  188  A    between atoms: _461  and  _462
REMARK  189  A    between atoms: _465  and  _467
REMARK  190  A    between atoms: _467  and  _468
REMARK  191  A    between atoms: _470  and  _472
REMARK  192  A    between atoms: _472  and  _473
REMARK  193  A    between atoms: _475  and  _477
REMARK  194  A    between atoms: _477  and  _478
REMARK  195  A    between atoms: _477  and  _480
REMARK  196  A    between atoms: _480  and  _481
REMARK  197  A    between atoms: _486  and  _487
REMARK  198  A    between atoms: _490  and  _491
REMARK  199  A    between atoms: _496  and  _498
REMARK  200  A    between atoms: _498  and  _499
REMARK  201  A    between atoms: _498  and  _501
REMARK  202  A    between atoms: _501  and  _502
REMARK  203  A    between atoms: _504  and  _506
REMARK  204  A    between atoms: _506  and  _507
REMARK  205  A    between atoms: _506  and  _509
REMARK  206  A    between atoms: _509  and  _510
REMARK  207  A    between atoms: _513  and  _515
REMARK  208  A    between atoms: _515  and  _516
REMARK  209  A    between atoms: _518  and  _520
REMARK  210  A    between atoms: _520  and  _521
REMARK  211  A    between atoms: _520  and  _523
REMARK  212  A    between atoms: _523  and  _524
REMARK  213  A    between atoms: _524  and  _525
REMARK  214  A    between atoms: _530  and  _532
REMARK  215  A    between atoms: _532  and  _533
REMARK  216  A    between atoms: _532  and  _535
REMARK  217  A    between atoms: _535  and  _536
REMARK  218  A    between atoms: _538  and  _540
REMARK  219  A    between atoms: _540  and  _541
REMARK  220  A    between atoms: _540  and  _543
REMARK  221  A    between atoms: _543  and  _544
REMARK  222  A    between atoms: _549  and  _551
REMARK  223  A    between atoms: _551  and  _552
REMARK  224  A    between atoms: _551  and  _554
REMARK  225  A    between atoms: _554  and  _555
REMARK  226  A    between atoms: _557  and  _559
REMARK  227  A    between atoms: _559  and  _560
REMARK  228  A    between atoms: _559  and  _562
REMARK  229  A    between atoms: _562  and  _563
REMARK  230  A    between atoms: _566  and  _568
REMARK  231  A    between atoms: _568  and  _569
REMARK  232  A    between atoms: _568  and  _571
REMARK  233  A    between atoms: _571  and  _572
REMARK  234  A    between atoms: _578  and  _580
REMARK  235  A    between atoms: _580  and  _581
REMARK  236  A    between atoms: _580  and  _583
REMARK  237  A    between atoms: _583  and  _584
REMARK  238  A    between atoms: _586  and  _588
REMARK  239  A    between atoms: _588  and  _589
REMARK  240  A    between atoms: _588  and  _591
REMARK  241  A    between atoms: _591  and  _592
REMARK  242  A    between atoms: _595  and  _597
REMARK  243  A    between atoms: _597  and  _598
REMARK  244  A    between atoms: _597  and  _600
REMARK  245  A    between atoms: _600  and  _601
REMARK  246  A    between atoms: _607  and  _609
REMARK  247  A    between atoms: _609  and  _610
REMARK  248  A    between atoms: _612  and  _614
REMARK  249  A    between atoms: _614  and  _615
REMARK  250  A    between atoms: _614  and  _617
REMARK  251  A    between atoms: _617  and  _618
REMARK                            x       y       z     vdW  Elec       q    Type
REMARK                         _______ _______ _______ _____ _____    ______ ____
ROOT
ATOM      1  O   HOH     1      14.015   1.644  14.033  0.00  0.00    +0.000 OA
ENDROOT
TORSDOF 0
REMARK  Name = ../refined-set-2016/1bxq/1bxq_pocket.pdb
REMARK  251 active torsions:
REMARK  status: ('A' for Active; 'I' for Inactive)
REMARK    1  A    between atoms: _1  and  _3
REMARK    2  A    between atoms: _3  and  _4
REMARK    3  A    between atoms: _3  and  _6
REMARK    4  A    between atoms: _6  and  _7
REMARK    5  A    between atoms: _10  and  _12
REMARK    6  A    between atoms: _12  and  _13
REMARK    7  A    between atoms: _16  and  _18
REMARK    8  A    between atoms: _18  and  _19
REMARK    9  A    between atoms: _18  and  _21
REMARK   10  A    between atoms: _21  and  _22
REMARK   11  A    between atoms: _27  and  _29
REMARK   12  A    between atoms: _29  and  _30
REMARK   13  A    between atoms: _29  and  _32
REMARK   14  A    between atoms: _32  and  _33
REMARK   15  A    between atoms: _36  and  _38
REMARK   16  A    between atoms: _38  and  _39
REMARK   17  A    between atoms: _38  and  _41
REMARK   18  A    between atoms: _41  and  _42
REMARK   19  A    between atoms: _42  and  _43
REMARK   20  A    between atoms: _46  and  _48
REMARK   21  A    between atoms: _48  and  _49
REMARK   22  A    between atoms: _48  and  _51
REMARK   23  A    between atoms: _51  and  _52
REMARK   24  A    between atoms: _52  and  _53
REMARK   25  A    between atoms: _56  and  _58
REMARK   26  A    between atoms: _58  and  _59
REMARK   27  A    between atoms: _58  and  _61
REMARK   28  A    between atoms: _61  and  _62
REMARK   29  A    between atoms: _67  and  _68
REMARK   30  A    between atoms: _70  and  _72
REMARK   31  A    between atoms: _72  and  _73
REMARK   32  A    between atoms: _72  and  _75
REMARK   33  A    between atoms: _75  and  _76
REMARK   34  A    between atoms: _81  and  _83
REMARK   35  A    between atoms: _83  and  _84
REMARK   36  A    between atoms: _83  and  _86
REMARK   37  A    between atoms: _86  and  _87
REMARK   38  A    between atoms: _93  and  _95
REMARK   39  A    between atoms: _95  and  _96
REMARK   40  A    between atoms: _95  and  _98
REMARK   41  A    between atoms: _98  and  _99
REMARK   42  A    between atoms: _102  and  _104
REMARK   43  A    between atoms: _104  and  _105
REMARK   44  A    between atoms: _104  and  _107
REMARK   45  A    between atoms: _107  and  _108
REMARK   46  A    between atoms: _111  and  _113
REMARK   47  A    between atoms: _113  and  _114
REMARK   48  A    between atoms: _116  and  _118
REMARK   49  A    between atoms: _118  and  _119
REMARK   50  A    between atoms: _118  and  _121
REMARK   51  A    between atoms: _121  and  _122
REMARK   52  A    between atoms: _124  and  _126
REMARK   53  A    between atoms: _126  and  _127
REMARK   54  A    between atoms: _130  and  _132
REMARK   55  A    between atoms: _132  and  _133
REMARK   56  A    between atoms: _132  and  _135
REMARK   57  A    between atoms: _135  and  _136
REMARK   58  A    between atoms: _139  and  _141
REMARK   59  A    between atoms: _141  and  _142
REMARK   60  A    between atoms: _141  and  _144
REMARK   61  A    between atoms: _144  and  _145
REMARK   62  A    between atoms: _155  and  _157
REMARK   63  A    between atoms: _157  and  _158
REMARK   64  A    between atoms: _157  and  _160
REMARK   65  A    between atoms: _160  and  _161
REMARK   66  A    between atoms: _164  and  _166
REMARK   67  A    between atoms: _166  and  _167
REMARK   68  A    between atoms: _166  and  _169
REMARK   69  A    between atoms: _169  and  _170
REMARK   70  A    between atoms: _172  and  _174
REMARK   71  A    between atoms: _174  and  _175
REMARK   72  A    between atoms: _174  and  _177
REMARK   73  A    between atoms: _177  and  _178
REMARK   74  A    between atoms: _183  and  _184
REMARK   75  A    between atoms: _186  and  _188
REMARK   76  A    between atoms: _188  and  _189
REMARK   77  A    between atoms: _191  and  _193
REMARK   78  A    between atoms: _193  and  _194
REMARK   79  A    between atoms: _193  and  _196
REMARK   80  A    between atoms: _196  and  _197
REMARK   81  A    between atoms: _200  and  _202
REMARK   82  A    between atoms: _202  and  _203
REMARK   83  A    between atoms: _205  and  _207
REMARK   84  A    between atoms: _207  and  _208
REMARK   85  A    between atoms: _207  and  _210
REMARK   86  A    between atoms: _210  and  _211
REMARK   87  A    between atoms: _213  and  _215
REMARK   88  A    between atoms: _215  and  _216
REMARK   89  A    between atoms: _215  and  _218
REMARK   90  A    between atoms: _218  and  _219
REMARK   91  A    between atoms: _221  and  _223
REMARK   92  A    between atoms: _223  and  _224
REMARK   93  A    between atoms: _223  and  _226
REMARK   94  A    between atoms: _226  and  _227
REMARK   95  A    between atoms: _229  and  _231
REMARK   96  A    between atoms: _231  and  _232
REMARK   97  A    between atoms: _231  and  _234
REMARK   98  A    between atoms: _234  and  _235
REMARK   99  A    between atoms: _235  and  _236
REMARK  100  A    between atoms: _241  and  _243
REMARK  101  A    between atoms: _243  and  _244
REMARK  102  A    between atoms: _243  and  _246
REMARK  103  A    between atoms: _246  and  _247
REMARK  104  A    between atoms: _253  and  _255
REMARK  105  A    between atoms: _255  and  _256
REMARK  106  A    between atoms: _255  and  _258
REMARK  107  A    between atoms: _258  and  _259
REMARK  108  A    between atoms: _262  and  _264
REMARK  109  A    between atoms: _264  and  _265
REMARK  110  A    between atoms: _264  and  _267
REMARK  111  A    between atoms: _267  and  _268
REMARK  112  A    between atoms: _273  and  _275
REMARK  113  A    between atoms: _275  and  _276
REMARK  114  A    between atoms: _275  and  _278
REMARK  115  A    between atoms: _278  and  _279
REMARK  116  A    between atoms: _284  and  _286
REMARK  117  A    between atoms: _286  and  _287
REMARK  118  A    between atoms: _289  and  _291
REMARK  119  A    between atoms: _291  and  _292
REMARK  120  A    between atoms: _291  and  _294
REMARK  121  A    between atoms: _294  and  _295
REMARK  122  A    between atoms: _298  and  _300
REMARK  123  A    between atoms: _300  and  _301
REMARK  124  A    between atoms: _300  and  _303
REMARK  125  A    between atoms: _303  and  _304
REMARK  126  A    between atoms: _307  and  _309
REMARK  127  A    between atoms: _309  and  _310
REMARK  128  A    between atoms: _312  and  _314
REMARK  129  A    between atoms: _314  and  _315
REMARK  130  A    between atoms: _314  and  _317
REMARK  131  A    between atoms: _317  and  _318
REMARK  132  A    between atoms: _321  and  _323
REMARK  133  A    between atoms: _323  and  _324
REMARK  134  A    between atoms: _327  and  _329
REMARK  135  A    between atoms: _329  and  _330
REMARK  136  A    between atoms: _329  and  _332
REMARK  137  A    between atoms: _332  and  _333
REMARK  138  A    between atoms: _336  and  _338
REMARK  139  A    between atoms: _338  and  _339
REMARK  140  A    between atoms: _338  and  _341
REMARK  141  A    between atoms: _341  and  _342
REMARK  142  A    between atoms: _342  and  _343
REMARK  143  A    between atoms: _348  and  _350
REMARK  144  A    between atoms: _350  and  _351
REMARK  145  A    between atoms: _350  and  _353
REMARK  146  A    between atoms: _353  and  _354
REMARK  147  A    between atoms: _360  and  _362
REMARK  148  A    between atoms: _362  and  _363
REMARK  149  A    between atoms: _362  and  _365
REMARK  150  A    between atoms: _365  and  _366
REMARK  151  A    between atoms: _376  and  _378
REMARK  152  A    between atoms: _378  and  _379
REMARK  153  A    between atoms: _378  and  _381
REMARK  154  A    between atoms: _381  and  _382
REMARK  155  A    between atoms: _385  and  _387
REMARK  156  A    between atoms: _387  and  _388
REMARK  157  A    between atoms: _391  and  _393
REMARK  158  A    between atoms: _393  and  _394
REMARK  159  A    between atoms: _393  and  _396
REMARK  160  A    between atoms: _396  and  _397
REMARK  161  A    between atoms: _400  and  _402
REMARK  162  A    between atoms: _402  and  _403
REMARK  163  A    between atoms: _402  and  _405
REMARK  164  A    between atoms: _405  and  _406
REMARK  165  A    between atoms: _409  and  _411
REMARK  166  A    between atoms: _411  and  _412
REMARK  167  A    between atoms: _414  and  _416
REMARK  168  A    between atoms: _416  and  _417
REMARK  169  A    between atoms: _416  and  _419
REMARK  170  A    between atoms: _419  and  _420
REMARK  171  A    between atoms: _423  and  _425
REMARK  172  A    between atoms: _425  and  _426
REMARK  173  A    between atoms: _425  and  _428
REMARK  174  A    between atoms: _428  and  _429
REMARK  175  A    between atoms: _432  and  _434
REMARK  176  A    between atoms: _434  and  _435
REMARK  177  A    between atoms: _434  and  _437
REMARK  178  A    between atoms: _437  and  _438
REMARK  179  A    between atoms: _441  and  _443
REMARK  180  A    between atoms: _443  and  _444
REMARK  181  A    between atoms: _443  and  _446
REMARK  182  A    between atoms: _446  and  _447
REMARK  183  A    between atoms: _450  and  _452
REMARK  184  A    between atoms: _452  and  _453
REMARK  185  A    between atoms: _452  and  _455
REMARK  186  A    between atoms: _455  and  _456
REMARK  187  A    between atoms: _459  and  _461
REMARK  188  A    between atoms: _461  and  _462
REMARK  189  A    between atoms: _465  and  _467
REMARK  190  A    between atoms: _467  and  _468
REMARK  191  A    between atoms: _470  and  _472
REMARK  192  A    between atoms: _472  and  _473
REMARK  193  A    between atoms: _475  and  _477
REMARK  194  A    between atoms: _477  and  _478
REMARK  195  A    between atoms: _477  and  _480
REMARK  196  A    between atoms: _480  and  _481
REMARK  197  A    between atoms: _486  and  _487
REMARK  198  A    between atoms: _490  and  _491
REMARK  199  A    between atoms: _496  and  _498
REMARK  200  A    between atoms: _498  and  _499
REMARK  201  A    between atoms: _498  and  _501
REMARK  202  A    between atoms: _501  and  _502
REMARK  203  A    between atoms: _504  and  _506
REMARK  204  A    between atoms: _506  and  _507
REMARK  205  A    between atoms: _506  and  _509
REMARK  206  A    between atoms: _509  and  _510
REMARK  207  A    between atoms: _513  and  _515
REMARK  208  A    between atoms: _515  and  _516
REMARK  209  A    between atoms: _518  and  _520
REMARK  210  A    between atoms: _520  and  _521
REMARK  211  A    between atoms: _520  and  _523
REMARK  212  A    between atoms: _523  and  _524
REMARK  213  A    between atoms: _524  and  _525
REMARK  214  A    between atoms: _530  and  _532
REMARK  215  A    between atoms: _532  and  _533
REMARK  216  A    between atoms: _532  and  _535
REMARK  217  A    between atoms: _535  and  _536
REMARK  218  A    between atoms: _538  and  _540
REMARK  219  A    between atoms: _540  and  _541
REMARK  220  A    between atoms: _540  and  _543
REMARK  221  A    between atoms: _543  and  _544
REMARK  222  A    between atoms: _549  and  _551
REMARK  223  A    between atoms: _551  and  _552
REMARK  224  A    between atoms: _551  and  _554
REMARK  225  A    between atoms: _554  and  _555
REMARK  226  A    between atoms: _557  and  _559
REMARK  227  A    between atoms: _559  and  _560
REMARK  228  A    between atoms: _559  and  _562
REMARK  229  A    between atoms: _562  and  _563
REMARK  230  A    between atoms: _566  and  _568
REMARK  231  A    between atoms: _568  and  _569
REMARK  232  A    between atoms: _568  and  _571
REMARK  233  A    between atoms: _571  and  _572
REMARK  234  A    between atoms: _578  and  _580
REMARK  235  A    between atoms: _580  and  _581
REMARK  236  A    between atoms: _580  and  _583
REMARK  237  A    between atoms: _583  and  _584
REMARK  238  A    between atoms: _586  and  _588
REMARK  239  A    between atoms: _588  and  _589
REMARK  240  A    between atoms: _588  and  _591
REMARK  241  A    between atoms: _591  and  _592
REMARK  242  A    between atoms: _595  and  _597
REMARK  243  A    between atoms: _597  and  _598
REMARK  244  A    between atoms: _597  and  _600
REMARK  245  A    between atoms: _600  and  _601
REMARK  246  A    between atoms: _607  and  _609
REMARK  247  A    between atoms: _609  and  _610
REMARK  248  A    between atoms: _612  and  _614
REMARK  249  A    between atoms: _614  and  _615
REMARK  250  A    between atoms: _614  and  _617
REMARK  251  A    between atoms: _617  and  _618
REMARK                            x       y       z     vdW  Elec       q    Type
REMARK                         _______ _______ _______ _____ _____    ______ ____
ROOT
ATOM      1  O   HOH     1      20.147   2.610  11.490  0.00  0.00    +0.000 OA
ENDROOT
TORSDOF 0
REMARK  Name = ../refined-set-2016/1bxq/1bxq_pocket.pdb
REMARK  251 active torsions:
REMARK  status: ('A' for Active; 'I' for Inactive)
REMARK    1  A    between atoms: _1  and  _3
REMARK    2  A    between atoms: _3  and  _4
REMARK    3  A    between atoms: _3  and  _6
REMARK    4  A    between atoms: _6  and  _7
REMARK    5  A    between atoms: _10  and  _12
REMARK    6  A    between atoms: _12  and  _13
REMARK    7  A    between atoms: _16  and  _18
REMARK    8  A    between atoms: _18  and  _19
REMARK    9  A    between atoms: _18  and  _21
REMARK   10  A    between atoms: _21  and  _22
REMARK   11  A    between atoms: _27  and  _29
REMARK   12  A    between atoms: _29  and  _30
REMARK   13  A    between atoms: _29  and  _32
REMARK   14  A    between atoms: _32  and  _33
REMARK   15  A    between atoms: _36  and  _38
REMARK   16  A    between atoms: _38  and  _39
REMARK   17  A    between atoms: _38  and  _41
REMARK   18  A    between atoms: _41  and  _42
REMARK   19  A    between atoms: _42  and  _43
REMARK   20  A    between atoms: _46  and  _48
REMARK   21  A    between atoms: _48  and  _49
REMARK   22  A    between atoms: _48  and  _51
REMARK   23  A    between atoms: _51  and  _52
REMARK   24  A    between atoms: _52  and  _53
REMARK   25  A    between atoms: _56  and  _58
REMARK   26  A    between atoms: _58  and  _59
REMARK   27  A    between atoms: _58  and  _61
REMARK   28  A    between atoms: _61  and  _62
REMARK   29  A    between atoms: _67  and  _68
REMARK   30  A    between atoms: _70  and  _72
REMARK   31  A    between atoms: _72  and  _73
REMARK   32  A    between atoms: _72  and  _75
REMARK   33  A    between atoms: _75  and  _76
REMARK   34  A    between atoms: _81  and  _83
REMARK   35  A    between atoms: _83  and  _84
REMARK   36  A    between atoms: _83  and  _86
REMARK   37  A    between atoms: _86  and  _87
REMARK   38  A    between atoms: _93  and  _95
REMARK   39  A    between atoms: _95  and  _96
REMARK   40  A    between atoms: _95  and  _98
REMARK   41  A    between atoms: _98  and  _99
REMARK   42  A    between atoms: _102  and  _104
REMARK   43  A    between atoms: _104  and  _105
REMARK   44  A    between atoms: _104  and  _107
REMARK   45  A    between atoms: _107  and  _108
REMARK   46  A    between atoms: _111  and  _113
REMARK   47  A    between atoms: _113  and  _114
REMARK   48  A    between atoms: _116  and  _118
REMARK   49  A    between atoms: _118  and  _119
REMARK   50  A    between atoms: _118  and  _121
REMARK   51  A    between atoms: _121  and  _122
REMARK   52  A    between atoms: _124  and  _126
REMARK   53  A    between atoms: _126  and  _127
REMARK   54  A    between atoms: _130  and  _132
REMARK   55  A    between atoms: _132  and  _133
REMARK   56  A    between atoms: _132  and  _135
REMARK   57  A    between atoms: _135  and  _136
REMARK   58  A    between atoms: _139  and  _141
REMARK   59  A    between atoms: _141  and  _142
REMARK   60  A    between atoms: _141  and  _144
REMARK   61  A    between atoms: _144  and  _145
REMARK   62  A    between atoms: _155  and  _157
REMARK   63  A    between atoms: _157  and  _158
REMARK   64  A    between atoms: _157  and  _160
REMARK   65  A    between atoms: _160  and  _161
REMARK   66  A    between atoms: _164  and  _166
REMARK   67  A    between atoms: _166  and  _167
REMARK   68  A    between atoms: _166  and  _169
REMARK   69  A    between atoms: _169  and  _170
REMARK   70  A    between atoms: _172  and  _174
REMARK   71  A    between atoms: _174  and  _175
REMARK   72  A    between atoms: _174  and  _177
REMARK   73  A    between atoms: _177  and  _178
REMARK   74  A    between atoms: _183  and  _184
REMARK   75  A    between atoms: _186  and  _188
REMARK   76  A    between atoms: _188  and  _189
REMARK   77  A    between atoms: _191  and  _193
REMARK   78  A    between atoms: _193  and  _194
REMARK   79  A    between atoms: _193  and  _196
REMARK   80  A    between atoms: _196  and  _197
REMARK   81  A    between atoms: _200  and  _202
REMARK   82  A    between atoms: _202  and  _203
REMARK   83  A    between atoms: _205  and  _207
REMARK   84  A    between atoms: _207  and  _208
REMARK   85  A    between atoms: _207  and  _210
REMARK   86  A    between atoms: _210  and  _211
REMARK   87  A    between atoms: _213  and  _215
REMARK   88  A    between atoms: _215  and  _216
REMARK   89  A    between atoms: _215  and  _218
REMARK   90  A    between atoms: _218  and  _219
REMARK   91  A    between atoms: _221  and  _223
REMARK   92  A    between atoms: _223  and  _224
REMARK   93  A    between atoms: _223  and  _226
REMARK   94  A    between atoms: _226  and  _227
REMARK   95  A    between atoms: _229  and  _231
REMARK   96  A    between atoms: _231  and  _232
REMARK   97  A    between atoms: _231  and  _234
REMARK   98  A    between atoms: _234  and  _235
REMARK   99  A    between atoms: _235  and  _236
REMARK  100  A    between atoms: _241  and  _243
REMARK  101  A    between atoms: _243  and  _244
REMARK  102  A    between atoms: _243  and  _246
REMARK  103  A    between atoms: _246  and  _247
REMARK  104  A    between atoms: _253  and  _255
REMARK  105  A    between atoms: _255  and  _256
REMARK  106  A    between atoms: _255  and  _258
REMARK  107  A    between atoms: _258  and  _259
REMARK  108  A    between atoms: _262  and  _264
REMARK  109  A    between atoms: _264  and  _265
REMARK  110  A    between atoms: _264  and  _267
REMARK  111  A    between atoms: _267  and  _268
REMARK  112  A    between atoms: _273  and  _275
REMARK  113  A    between atoms: _275  and  _276
REMARK  114  A    between atoms: _275  and  _278
REMARK  115  A    between atoms: _278  and  _279
REMARK  116  A    between atoms: _284  and  _286
REMARK  117  A    between atoms: _286  and  _287
REMARK  118  A    between atoms: _289  and  _291
REMARK  119  A    between atoms: _291  and  _292
REMARK  120  A    between atoms: _291  and  _294
REMARK  121  A    between atoms: _294  and  _295
REMARK  122  A    between atoms: _298  and  _300
REMARK  123  A    between atoms: _300  and  _301
REMARK  124  A    between atoms: _300  and  _303
REMARK  125  A    between atoms: _303  and  _304
REMARK  126  A    between atoms: _307  and  _309
REMARK  127  A    between atoms: _309  and  _310
REMARK  128  A    between atoms: _312  and  _314
REMARK  129  A    between atoms: _314  and  _315
REMARK  130  A    between atoms: _314  and  _317
REMARK  131  A    between atoms: _317  and  _318
REMARK  132  A    between atoms: _321  and  _323
REMARK  133  A    between atoms: _323  and  _324
REMARK  134  A    between atoms: _327  and  _329
REMARK  135  A    between atoms: _329  and  _330
REMARK  136  A    between atoms: _329  and  _332
REMARK  137  A    between atoms: _332  and  _333
REMARK  138  A    between atoms: _336  and  _338
REMARK  139  A    between atoms: _338  and  _339
REMARK  140  A    between atoms: _338  and  _341
REMARK  141  A    between atoms: _341  and  _342
REMARK  142  A    between atoms: _342  and  _343
REMARK  143  A    between atoms: _348  and  _350
REMARK  144  A    between atoms: _350  and  _351
REMARK  145  A    between atoms: _350  and  _353
REMARK  146  A    between atoms: _353  and  _354
REMARK  147  A    between atoms: _360  and  _362
REMARK  148  A    between atoms: _362  and  _363
REMARK  149  A    between atoms: _362  and  _365
REMARK  150  A    between atoms: _365  and  _366
REMARK  151  A    between atoms: _376  and  _378
REMARK  152  A    between atoms: _378  and  _379
REMARK  153  A    between atoms: _378  and  _381
REMARK  154  A    between atoms: _381  and  _382
REMARK  155  A    between atoms: _385  and  _387
REMARK  156  A    between atoms: _387  and  _388
REMARK  157  A    between atoms: _391  and  _393
REMARK  158  A    between atoms: _393  and  _394
REMARK  159  A    between atoms: _393  and  _396
REMARK  160  A    between atoms: _396  and  _397
REMARK  161  A    between atoms: _400  and  _402
REMARK  162  A    between atoms: _402  and  _403
REMARK  163  A    between atoms: _402  and  _405
REMARK  164  A    between atoms: _405  and  _406
REMARK  165  A    between atoms: _409  and  _411
REMARK  166  A    between atoms: _411  and  _412
REMARK  167  A    between atoms: _414  and  _416
REMARK  168  A    between atoms: _416  and  _417
REMARK  169  A    between atoms: _416  and  _419
REMARK  170  A    between atoms: _419  and  _420
REMARK  171  A    between atoms: _423  and  _425
REMARK  172  A    between atoms: _425  and  _426
REMARK  173  A    between atoms: _425  and  _428
REMARK  174  A    between atoms: _428  and  _429
REMARK  175  A    between atoms: _432  and  _434
REMARK  176  A    between atoms: _434  and  _435
REMARK  177  A    between atoms: _434  and  _437
REMARK  178  A    between atoms: _437  and  _438
REMARK  179  A    between atoms: _441  and  _443
REMARK  180  A    between atoms: _443  and  _444
REMARK  181  A    between atoms: _443  and  _446
REMARK  182  A    between atoms: _446  and  _447
REMARK  183  A    between atoms: _450  and  _452
REMARK  184  A    between atoms: _452  and  _453
REMARK  185  A    between atoms: _452  and  _455
REMARK  186  A    between atoms: _455  and  _456
REMARK  187  A    between atoms: _459  and  _461
REMARK  188  A    between atoms: _461  and  _462
REMARK  189  A    between atoms: _465  and  _467
REMARK  190  A    between atoms: _467  and  _468
REMARK  191  A    between atoms: _470  and  _472
REMARK  192  A    between atoms: _472  and  _473
REMARK  193  A    between atoms: _475  and  _477
REMARK  194  A    between atoms: _477  and  _478
REMARK  195  A    between atoms: _477  and  _480
REMARK  196  A    between atoms: _480  and  _481
REMARK  197  A    between atoms: _486  and  _487
REMARK  198  A    between atoms: _490  and  _491
REMARK  199  A    between atoms: _496  and  _498
REMARK  200  A    between atoms: _498  and  _499
REMARK  201  A    between atoms: _498  and  _501
REMARK  202  A    between atoms: _501  and  _502
REMARK  203  A    between atoms: _504  and  _506
REMARK  204  A    between atoms: _506  and  _507
REMARK  205  A    between atoms: _506  and  _509
REMARK  206  A    between atoms: _509  and  _510
REMARK  207  A    between atoms: _513  and  _515
REMARK  208  A    between atoms: _515  and  _516
REMARK  209  A    between atoms: _518  and  _520
REMARK  210  A    between atoms: _520  and  _521
REMARK  211  A    between atoms: _520  and  _523
REMARK  212  A    between atoms: _523  and  _524
REMARK  213  A    between atoms: _524  and  _525
REMARK  214  A    between atoms: _530  and  _532
REMARK  215  A    between atoms: _532  and  _533
REMARK  216  A    between atoms: _532  and  _535
REMARK  217  A    between atoms: _535  and  _536
REMARK  218  A    between atoms: _538  and  _540
REMARK  219  A    between atoms: _540  and  _541
REMARK  220  A    between atoms: _540  and  _543
REMARK  221  A    between atoms: _543  and  _544
REMARK  222  A    between atoms: _549  and  _551
REMARK  223  A    between atoms: _551  and  _552
REMARK  224  A    between atoms: _551  and  _554
REMARK  225  A    between atoms: _554  and  _555
REMARK  226  A    between atoms: _557  and  _559
REMARK  227  A    between atoms: _559  and  _560
REMARK  228  A    between atoms: _559  and  _562
REMARK  229  A    between atoms: _562  and  _563
REMARK  230  A    between atoms: _566  and  _568
REMARK  231  A    between atoms: _568  and  _569
REMARK  232  A    between atoms: _568  and  _571
REMARK  233  A    between atoms: _571  and  _572
REMARK  234  A    between atoms: _578  and  _580
REMARK  235  A    between atoms: _580  and  _581
REMARK  236  A    between atoms: _580  and  _583
REMARK  237  A    between atoms: _583  and  _584
REMARK  238  A    between atoms: _586  and  _588
REMARK  239  A    between atoms: _588  and  _589
REMARK  240  A    between atoms: _588  and  _591
REMARK  241  A    between atoms: _591  and  _592
REMARK  242  A    between atoms: _595  and  _597
REMARK  243  A    between atoms: _597  and  _598
REMARK  244  A    between atoms: _597  and  _600
REMARK  245  A    between atoms: _600  and  _601
REMARK  246  A    between atoms: _607  and  _609
REMARK  247  A    between atoms: _609  and  _610
REMARK  248  A    between atoms: _612  and  _614
REMARK  249  A    between atoms: _614  and  _615
REMARK  250  A    between atoms: _614  and  _617
REMARK  251  A    between atoms: _617  and  _618
REMARK                            x       y       z     vdW  Elec       q    Type
REMARK                         _______ _______ _______ _____ _____    ______ ____
ROOT
ATOM      1  O   HOH     1      23.993   3.801  17.071  0.00  0.00    +0.000 OA
ENDROOT
TORSDOF 0
REMARK  Name = ../refined-set-2016/1bxq/1bxq_pocket.pdb
REMARK  251 active torsions:
REMARK  status: ('A' for Active; 'I' for Inactive)
REMARK    1  A    between atoms: _1  and  _3
REMARK    2  A    between atoms: _3  and  _4
REMARK    3  A    between atoms: _3  and  _6
REMARK    4  A    between atoms: _6  and  _7
REMARK    5  A    between atoms: _10  and  _12
REMARK    6  A    between atoms: _12  and  _13
REMARK    7  A    between atoms: _16  and  _18
REMARK    8  A    between atoms: _18  and  _19
REMARK    9  A    between atoms: _18  and  _21
REMARK   10  A    between atoms: _21  and  _22
REMARK   11  A    between atoms: _27  and  _29
REMARK   12  A    between atoms: _29  and  _30
REMARK   13  A    between atoms: _29  and  _32
REMARK   14  A    between atoms: _32  and  _33
REMARK   15  A    between atoms: _36  and  _38
REMARK   16  A    between atoms: _38  and  _39
REMARK   17  A    between atoms: _38  and  _41
REMARK   18  A    between atoms: _41  and  _42
REMARK   19  A    between atoms: _42  and  _43
REMARK   20  A    between atoms: _46  and  _48
REMARK   21  A    between atoms: _48  and  _49
REMARK   22  A    between atoms: _48  and  _51
REMARK   23  A    between atoms: _51  and  _52
REMARK   24  A    between atoms: _52  and  _53
REMARK   25  A    between atoms: _56  and  _58
REMARK   26  A    between atoms: _58  and  _59
REMARK   27  A    between atoms: _58  and  _61
REMARK   28  A    between atoms: _61  and  _62
REMARK   29  A    between atoms: _67  and  _68
REMARK   30  A    between atoms: _70  and  _72
REMARK   31  A    between atoms: _72  and  _73
REMARK   32  A    between atoms: _72  and  _75
REMARK   33  A    between atoms: _75  and  _76
REMARK   34  A    between atoms: _81  and  _83
REMARK   35  A    between atoms: _83  and  _84
REMARK   36  A    between atoms: _83  and  _86
REMARK   37  A    between atoms: _86  and  _87
REMARK   38  A    between atoms: _93  and  _95
REMARK   39  A    between atoms: _95  and  _96
REMARK   40  A    between atoms: _95  and  _98
REMARK   41  A    between atoms: _98  and  _99
REMARK   42  A    between atoms: _102  and  _104
REMARK   43  A    between atoms: _104  and  _105
REMARK   44  A    between atoms: _104  and  _107
REMARK   45  A    between atoms: _107  and  _108
REMARK   46  A    between atoms: _111  and  _113
REMARK   47  A    between atoms: _113  and  _114
REMARK   48  A    between atoms: _116  and  _118
REMARK   49  A    between atoms: _118  and  _119
REMARK   50  A    between atoms: _118  and  _121
REMARK   51  A    between atoms: _121  and  _122
REMARK   52  A    between atoms: _124  and  _126
REMARK   53  A    between atoms: _126  and  _127
REMARK   54  A    between atoms: _130  and  _132
REMARK   55  A    between atoms: _132  and  _133
REMARK   56  A    between atoms: _132  and  _135
REMARK   57  A    between atoms: _135  and  _136
REMARK   58  A    between atoms: _139  and  _141
REMARK   59  A    between atoms: _141  and  _142
REMARK   60  A    between atoms: _141  and  _144
REMARK   61  A    between atoms: _144  and  _145
REMARK   62  A    between atoms: _155  and  _157
REMARK   63  A    between atoms: _157  and  _158
REMARK   64  A    between atoms: _157  and  _160
REMARK   65  A    between atoms: _160  and  _161
REMARK   66  A    between atoms: _164  and  _166
REMARK   67  A    between atoms: _166  and  _167
REMARK   68  A    between atoms: _166  and  _169
REMARK   69  A    between atoms: _169  and  _170
REMARK   70  A    between atoms: _172  and  _174
REMARK   71  A    between atoms: _174  and  _175
REMARK   72  A    between atoms: _174  and  _177
REMARK   73  A    between atoms: _177  and  _178
REMARK   74  A    between atoms: _183  and  _184
REMARK   75  A    between atoms: _186  and  _188
REMARK   76  A    between atoms: _188  and  _189
REMARK   77  A    between atoms: _191  and  _193
REMARK   78  A    between atoms: _193  and  _194
REMARK   79  A    between atoms: _193  and  _196
REMARK   80  A    between atoms: _196  and  _197
REMARK   81  A    between atoms: _200  and  _202
REMARK   82  A    between atoms: _202  and  _203
REMARK   83  A    between atoms: _205  and  _207
REMARK   84  A    between atoms: _207  and  _208
REMARK   85  A    between atoms: _207  and  _210
REMARK   86  A    between atoms: _210  and  _211
REMARK   87  A    between atoms: _213  and  _215
REMARK   88  A    between atoms: _215  and  _216
REMARK   89  A    between atoms: _215  and  _218
REMARK   90  A    between atoms: _218  and  _219
REMARK   91  A    between atoms: _221  and  _223
REMARK   92  A    between atoms: _223  and  _224
REMARK   93  A    between atoms: _223  and  _226
REMARK   94  A    between atoms: _226  and  _227
REMARK   95  A    between atoms: _229  and  _231
REMARK   96  A    between atoms: _231  and  _232
REMARK   97  A    between atoms: _231  and  _234
REMARK   98  A    between atoms: _234  and  _235
REMARK   99  A    between atoms: _235  and  _236
REMARK  100  A    between atoms: _241  and  _243
REMARK  101  A    between atoms: _243  and  _244
REMARK  102  A    between atoms: _243  and  _246
REMARK  103  A    between atoms: _246  and  _247
REMARK  104  A    between atoms: _253  and  _255
REMARK  105  A    between atoms: _255  and  _256
REMARK  106  A    between atoms: _255  and  _258
REMARK  107  A    between atoms: _258  and  _259
REMARK  108  A    between atoms: _262  and  _264
REMARK  109  A    between atoms: _264  and  _265
REMARK  110  A    between atoms: _264  and  _267
REMARK  111  A    between atoms: _267  and  _268
REMARK  112  A    between atoms: _273  and  _275
REMARK  113  A    between atoms: _275  and  _276
REMARK  114  A    between atoms: _275  and  _278
REMARK  115  A    between atoms: _278  and  _279
REMARK  116  A    between atoms: _284  and  _286
REMARK  117  A    between atoms: _286  and  _287
REMARK  118  A    between atoms: _289  and  _291
REMARK  119  A    between atoms: _291  and  _292
REMARK  120  A    between atoms: _291  and  _294
REMARK  121  A    between atoms: _294  and  _295
REMARK  122  A    between atoms: _298  and  _300
REMARK  123  A    between atoms: _300  and  _301
REMARK  124  A    between atoms: _300  and  _303
REMARK  125  A    between atoms: _303  and  _304
REMARK  126  A    between atoms: _307  and  _309
REMARK  127  A    between atoms: _309  and  _310
REMARK  128  A    between atoms: _312  and  _314
REMARK  129  A    between atoms: _314  and  _315
REMARK  130  A    between atoms: _314  and  _317
REMARK  131  A    between atoms: _317  and  _318
REMARK  132  A    between atoms: _321  and  _323
REMARK  133  A    between atoms: _323  and  _324
REMARK  134  A    between atoms: _327  and  _329
REMARK  135  A    between atoms: _329  and  _330
REMARK  136  A    between atoms: _329  and  _332
REMARK  137  A    between atoms: _332  and  _333
REMARK  138  A    between atoms: _336  and  _338
REMARK  139  A    between atoms: _338  and  _339
REMARK  140  A    between atoms: _338  and  _341
REMARK  141  A    between atoms: _341  and  _342
REMARK  142  A    between atoms: _342  and  _343
REMARK  143  A    between atoms: _348  and  _350
REMARK  144  A    between atoms: _350  and  _351
REMARK  145  A    between atoms: _350  and  _353
REMARK  146  A    between atoms: _353  and  _354
REMARK  147  A    between atoms: _360  and  _362
REMARK  148  A    between atoms: _362  and  _363
REMARK  149  A    between atoms: _362  and  _365
REMARK  150  A    between atoms: _365  and  _366
REMARK  151  A    between atoms: _376  and  _378
REMARK  152  A    between atoms: _378  and  _379
REMARK  153  A    between atoms: _378  and  _381
REMARK  154  A    between atoms: _381  and  _382
REMARK  155  A    between atoms: _385  and  _387
REMARK  156  A    between atoms: _387  and  _388
REMARK  157  A    between atoms: _391  and  _393
REMARK  158  A    between atoms: _393  and  _394
REMARK  159  A    between atoms: _393  and  _396
REMARK  160  A    between atoms: _396  and  _397
REMARK  161  A    between atoms: _400  and  _402
REMARK  162  A    between atoms: _402  and  _403
REMARK  163  A    between atoms: _402  and  _405
REMARK  164  A    between atoms: _405  and  _406
REMARK  165  A    between atoms: _409  and  _411
REMARK  166  A    between atoms: _411  and  _412
REMARK  167  A    between atoms: _414  and  _416
REMARK  168  A    between atoms: _416  and  _417
REMARK  169  A    between atoms: _416  and  _419
REMARK  170  A    between atoms: _419  and  _420
REMARK  171  A    between atoms: _423  and  _425
REMARK  172  A    between atoms: _425  and  _426
REMARK  173  A    between atoms: _425  and  _428
REMARK  174  A    between atoms: _428  and  _429
REMARK  175  A    between atoms: _432  and  _434
REMARK  176  A    between atoms: _434  and  _435
REMARK  177  A    between atoms: _434  and  _437
REMARK  178  A    between atoms: _437  and  _438
REMARK  179  A    between atoms: _441  and  _443
REMARK  180  A    between atoms: _443  and  _444
REMARK  181  A    between atoms: _443  and  _446
REMARK  182  A    between atoms: _446  and  _447
REMARK  183  A    between atoms: _450  and  _452
REMARK  184  A    between atoms: _452  and  _453
REMARK  185  A    between atoms: _452  and  _455
REMARK  186  A    between atoms: _455  and  _456
REMARK  187  A    between atoms: _459  and  _461
REMARK  188  A    between atoms: _461  and  _462
REMARK  189  A    between atoms: _465  and  _467
REMARK  190  A    between atoms: _467  and  _468
REMARK  191  A    between atoms: _470  and  _472
REMARK  192  A    between atoms: _472  and  _473
REMARK  193  A    between atoms: _475  and  _477
REMARK  194  A    between atoms: _477  and  _478
REMARK  195  A    between atoms: _477  and  _480
REMARK  196  A    between atoms: _480  and  _481
REMARK  197  A    between atoms: _486  and  _487
REMARK  198  A    between atoms: _490  and  _491
REMARK  199  A    between atoms: _496  and  _498
REMARK  200  A    between atoms: _498  and  _499
REMARK  201  A    between atoms: _498  and  _501
REMARK  202  A    between atoms: _501  and  _502
REMARK  203  A    between atoms: _504  and  _506
REMARK  204  A    between atoms: _506  and  _507
REMARK  205  A    between atoms: _506  and  _509
REMARK  206  A    between atoms: _509  and  _510
REMARK  207  A    between atoms: _513  and  _515
REMARK  208  A    between atoms: _515  and  _516
REMARK  209  A    between atoms: _518  and  _520
REMARK  210  A    between atoms: _520  and  _521
REMARK  211  A    between atoms: _520  and  _523
REMARK  212  A    between atoms: _523  and  _524
REMARK  213  A    between atoms: _524  and  _525
REMARK  214  A    between atoms: _530  and  _532
REMARK  215  A    between atoms: _532  and  _533
REMARK  216  A    between atoms: _532  and  _535
REMARK  217  A    between atoms: _535  and  _536
REMARK  218  A    between atoms: _538  and  _540
REMARK  219  A    between atoms: _540  and  _541
REMARK  220  A    between atoms: _540  and  _543
REMARK  221  A    between atoms: _543  and  _544
REMARK  222  A    between atoms: _549  and  _551
REMARK  223  A    between atoms: _551  and  _552
REMARK  224  A    between atoms: _551  and  _554
REMARK  225  A    between atoms: _554  and  _555
REMARK  226  A    between atoms: _557  and  _559
REMARK  227  A    between atoms: _559  and  _560
REMARK  228  A    between atoms: _559  and  _562
REMARK  229  A    between atoms: _562  and  _563
REMARK  230  A    between atoms: _566  and  _568
REMARK  231  A    between atoms: _568  and  _569
REMARK  232  A    between atoms: _568  and  _571
REMARK  233  A    between atoms: _571  and  _572
REMARK  234  A    between atoms: _578  and  _580
REMARK  235  A    between atoms: _580  and  _581
REMARK  236  A    between atoms: _580  and  _583
REMARK  237  A    between atoms: _583  and  _584
REMARK  238  A    between atoms: _586  and  _588
REMARK  239  A    between atoms: _588  and  _589
REMARK  240  A    between atoms: _588  and  _591
REMARK  241  A    between atoms: _591  and  _592
REMARK  242  A    between atoms: _595  and  _597
REMARK  243  A    between atoms: _597  and  _598
REMARK  244  A    between atoms: _597  and  _600
REMARK  245  A    between atoms: _600  and  _601
REMARK  246  A    between atoms: _607  and  _609
REMARK  247  A    between atoms: _609  and  _610
REMARK  248  A    between atoms: _612  and  _614
REMARK  249  A    between atoms: _614  and  _615
REMARK  250  A    between atoms: _614  and  _617
REMARK  251  A    between atoms: _617  and  _618
REMARK                            x       y       z     vdW  Elec       q    Type
REMARK                         _______ _______ _______ _____ _____    ______ ____
ROOT
ATOM      1  O   HOH     1      10.282  -0.284  16.761  0.00  0.00    +0.000 OA
ENDROOT
TORSDOF 0
REMARK  Name = ../refined-set-2016/1bxq/1bxq_pocket.pdb
REMARK  251 active torsions:
REMARK  status: ('A' for Active; 'I' for Inactive)
REMARK    1  A    between atoms: _1  and  _3
REMARK    2  A    between atoms: _3  and  _4
REMARK    3  A    between atoms: _3  and  _6
REMARK    4  A    between atoms: _6  and  _7
REMARK    5  A    between atoms: _10  and  _12
REMARK    6  A    between atoms: _12  and  _13
REMARK    7  A    between atoms: _16  and  _18
REMARK    8  A    between atoms: _18  and  _19
REMARK    9  A    between atoms: _18  and  _21
REMARK   10  A    between atoms: _21  and  _22
REMARK   11  A    between atoms: _27  and  _29
REMARK   12  A    between atoms: _29  and  _30
REMARK   13  A    between atoms: _29  and  _32
REMARK   14  A    between atoms: _32  and  _33
REMARK   15  A    between atoms: _36  and  _38
REMARK   16  A    between atoms: _38  and  _39
REMARK   17  A    between atoms: _38  and  _41
REMARK   18  A    between atoms: _41  and  _42
REMARK   19  A    between atoms: _42  and  _43
REMARK   20  A    between atoms: _46  and  _48
REMARK   21  A    between atoms: _48  and  _49
REMARK   22  A    between atoms: _48  and  _51
REMARK   23  A    between atoms: _51  and  _52
REMARK   24  A    between atoms: _52  and  _53
REMARK   25  A    between atoms: _56  and  _58
REMARK   26  A    between atoms: _58  and  _59
REMARK   27  A    between atoms: _58  and  _61
REMARK   28  A    between atoms: _61  and  _62
REMARK   29  A    between atoms: _67  and  _68
REMARK   30  A    between atoms: _70  and  _72
REMARK   31  A    between atoms: _72  and  _73
REMARK   32  A    between atoms: _72  and  _75
REMARK   33  A    between atoms: _75  and  _76
REMARK   34  A    between atoms: _81  and  _83
REMARK   35  A    between atoms: _83  and  _84
REMARK   36  A    between atoms: _83  and  _86
REMARK   37  A    between atoms: _86  and  _87
REMARK   38  A    between atoms: _93  and  _95
REMARK   39  A    between atoms: _95  and  _96
REMARK   40  A    between atoms: _95  and  _98
REMARK   41  A    between atoms: _98  and  _99
REMARK   42  A    between atoms: _102  and  _104
REMARK   43  A    between atoms: _104  and  _105
REMARK   44  A    between atoms: _104  and  _107
REMARK   45  A    between atoms: _107  and  _108
REMARK   46  A    between atoms: _111  and  _113
REMARK   47  A    between atoms: _113  and  _114
REMARK   48  A    between atoms: _116  and  _118
REMARK   49  A    between atoms: _118  and  _119
REMARK   50  A    between atoms: _118  and  _121
REMARK   51  A    between atoms: _121  and  _122
REMARK   52  A    between atoms: _124  and  _126
REMARK   53  A    between atoms: _126  and  _127
REMARK   54  A    between atoms: _130  and  _132
REMARK   55  A    between atoms: _132  and  _133
REMARK   56  A    between atoms: _132  and  _135
REMARK   57  A    between atoms: _135  and  _136
REMARK   58  A    between atoms: _139  and  _141
REMARK   59  A    between atoms: _141  and  _142
REMARK   60  A    between atoms: _141  and  _144
REMARK   61  A    between atoms: _144  and  _145
REMARK   62  A    between atoms: _155  and  _157
REMARK   63  A    between atoms: _157  and  _158
REMARK   64  A    between atoms: _157  and  _160
REMARK   65  A    between atoms: _160  and  _161
REMARK   66  A    between atoms: _164  and  _166
REMARK   67  A    between atoms: _166  and  _167
REMARK   68  A    between atoms: _166  and  _169
REMARK   69  A    between atoms: _169  and  _170
REMARK   70  A    between atoms: _172  and  _174
REMARK   71  A    between atoms: _174  and  _175
REMARK   72  A    between atoms: _174  and  _177
REMARK   73  A    between atoms: _177  and  _178
REMARK   74  A    between atoms: _183  and  _184
REMARK   75  A    between atoms: _186  and  _188
REMARK   76  A    between atoms: _188  and  _189
REMARK   77  A    between atoms: _191  and  _193
REMARK   78  A    between atoms: _193  and  _194
REMARK   79  A    between atoms: _193  and  _196
REMARK   80  A    between atoms: _196  and  _197
REMARK   81  A    between atoms: _200  and  _202
REMARK   82  A    between atoms: _202  and  _203
REMARK   83  A    between atoms: _205  and  _207
REMARK   84  A    between atoms: _207  and  _208
REMARK   85  A    between atoms: _207  and  _210
REMARK   86  A    between atoms: _210  and  _211
REMARK   87  A    between atoms: _213  and  _215
REMARK   88  A    between atoms: _215  and  _216
REMARK   89  A    between atoms: _215  and  _218
REMARK   90  A    between atoms: _218  and  _219
REMARK   91  A    between atoms: _221  and  _223
REMARK   92  A    between atoms: _223  and  _224
REMARK   93  A    between atoms: _223  and  _226
REMARK   94  A    between atoms: _226  and  _227
REMARK   95  A    between atoms: _229  and  _231
REMARK   96  A    between atoms: _231  and  _232
REMARK   97  A    between atoms: _231  and  _234
REMARK   98  A    between atoms: _234  and  _235
REMARK   99  A    between atoms: _235  and  _236
REMARK  100  A    between atoms: _241  and  _243
REMARK  101  A    between atoms: _243  and  _244
REMARK  102  A    between atoms: _243  and  _246
REMARK  103  A    between atoms: _246  and  _247
REMARK  104  A    between atoms: _253  and  _255
REMARK  105  A    between atoms: _255  and  _256
REMARK  106  A    between atoms: _255  and  _258
REMARK  107  A    between atoms: _258  and  _259
REMARK  108  A    between atoms: _262  and  _264
REMARK  109  A    between atoms: _264  and  _265
REMARK  110  A    between atoms: _264  and  _267
REMARK  111  A    between atoms: _267  and  _268
REMARK  112  A    between atoms: _273  and  _275
REMARK  113  A    between atoms: _275  and  _276
REMARK  114  A    between atoms: _275  and  _278
REMARK  115  A    between atoms: _278  and  _279
REMARK  116  A    between atoms: _284  and  _286
REMARK  117  A    between atoms: _286  and  _287
REMARK  118  A    between atoms: _289  and  _291
REMARK  119  A    between atoms: _291  and  _292
REMARK  120  A    between atoms: _291  and  _294
REMARK  121  A    between atoms: _294  and  _295
REMARK  122  A    between atoms: _298  and  _300
REMARK  123  A    between atoms: _300  and  _301
REMARK  124  A    between atoms: _300  and  _303
REMARK  125  A    between atoms: _303  and  _304
REMARK  126  A    between atoms: _307  and  _309
REMARK  127  A    between atoms: _309  and  _310
REMARK  128  A    between atoms: _312  and  _314
REMARK  129  A    between atoms: _314  and  _315
REMARK  130  A    between atoms: _314  and  _317
REMARK  131  A    between atoms: _317  and  _318
REMARK  132  A    between atoms: _321  and  _323
REMARK  133  A    between atoms: _323  and  _324
REMARK  134  A    between atoms: _327  and  _329
REMARK  135  A    between atoms: _329  and  _330
REMARK  136  A    between atoms: _329  and  _332
REMARK  137  A    between atoms: _332  and  _333
REMARK  138  A    between atoms: _336  and  _338
REMARK  139  A    between atoms: _338  and  _339
REMARK  140  A    between atoms: _338  and  _341
REMARK  141  A    between atoms: _341  and  _342
REMARK  142  A    between atoms: _342  and  _343
REMARK  143  A    between atoms: _348  and  _350
REMARK  144  A    between atoms: _350  and  _351
REMARK  145  A    between atoms: _350  and  _353
REMARK  146  A    between atoms: _353  and  _354
REMARK  147  A    between atoms: _360  and  _362
REMARK  148  A    between atoms: _362  and  _363
REMARK  149  A    between atoms: _362  and  _365
REMARK  150  A    between atoms: _365  and  _366
REMARK  151  A    between atoms: _376  and  _378
REMARK  152  A    between atoms: _378  and  _379
REMARK  153  A    between atoms: _378  and  _381
REMARK  154  A    between atoms: _381  and  _382
REMARK  155  A    between atoms: _385  and  _387
REMARK  156  A    between atoms: _387  and  _388
REMARK  157  A    between atoms: _391  and  _393
REMARK  158  A    between atoms: _393  and  _394
REMARK  159  A    between atoms: _393  and  _396
REMARK  160  A    between atoms: _396  and  _397
REMARK  161  A    between atoms: _400  and  _402
REMARK  162  A    between atoms: _402  and  _403
REMARK  163  A    between atoms: _402  and  _405
REMARK  164  A    between atoms: _405  and  _406
REMARK  165  A    between atoms: _409  and  _411
REMARK  166  A    between atoms: _411  and  _412
REMARK  167  A    between atoms: _414  and  _416
REMARK  168  A    between atoms: _416  and  _417
REMARK  169  A    between atoms: _416  and  _419
REMARK  170  A    between atoms: _419  and  _420
REMARK  171  A    between atoms: _423  and  _425
REMARK  172  A    between atoms: _425  and  _426
REMARK  173  A    between atoms: _425  and  _428
REMARK  174  A    between atoms: _428  and  _429
REMARK  175  A    between atoms: _432  and  _434
REMARK  176  A    between atoms: _434  and  _435
REMARK  177  A    between atoms: _434  and  _437
REMARK  178  A    between atoms: _437  and  _438
REMARK  179  A    between atoms: _441  and  _443
REMARK  180  A    between atoms: _443  and  _444
REMARK  181  A    between atoms: _443  and  _446
REMARK  182  A    between atoms: _446  and  _447
REMARK  183  A    between atoms: _450  and  _452
REMARK  184  A    between atoms: _452  and  _453
REMARK  185  A    between atoms: _452  and  _455
REMARK  186  A    between atoms: _455  and  _456
REMARK  187  A    between atoms: _459  and  _461
REMARK  188  A    between atoms: _461  and  _462
REMARK  189  A    between atoms: _465  and  _467
REMARK  190  A    between atoms: _467  and  _468
REMARK  191  A    between atoms: _470  and  _472
REMARK  192  A    between atoms: _472  and  _473
REMARK  193  A    between atoms: _475  and  _477
REMARK  194  A    between atoms: _477  and  _478
REMARK  195  A    between atoms: _477  and  _480
REMARK  196  A    between atoms: _480  and  _481
REMARK  197  A    between atoms: _486  and  _487
REMARK  198  A    between atoms: _490  and  _491
REMARK  199  A    between atoms: _496  and  _498
REMARK  200  A    between atoms: _498  and  _499
REMARK  201  A    between atoms: _498  and  _501
REMARK  202  A    between atoms: _501  and  _502
REMARK  203  A    between atoms: _504  and  _506
REMARK  204  A    between atoms: _506  and  _507
REMARK  205  A    between atoms: _506  and  _509
REMARK  206  A    between atoms: _509  and  _510
REMARK  207  A    between atoms: _513  and  _515
REMARK  208  A    between atoms: _515  and  _516
REMARK  209  A    between atoms: _518  and  _520
REMARK  210  A    between atoms: _520  and  _521
REMARK  211  A    between atoms: _520  and  _523
REMARK  212  A    between atoms: _523  and  _524
REMARK  213  A    between atoms: _524  and  _525
REMARK  214  A    between atoms: _530  and  _532
REMARK  215  A    between atoms: _532  and  _533
REMARK  216  A    between atoms: _532  and  _535
REMARK  217  A    between atoms: _535  and  _536
REMARK  218  A    between atoms: _538  and  _540
REMARK  219  A    between atoms: _540  and  _541
REMARK  220  A    between atoms: _540  and  _543
REMARK  221  A    between atoms: _543  and  _544
REMARK  222  A    between atoms: _549  and  _551
REMARK  223  A    between atoms: _551  and  _552
REMARK  224  A    between atoms: _551  and  _554
REMARK  225  A    between atoms: _554  and  _555
REMARK  226  A    between atoms: _557  and  _559
REMARK  227  A    between atoms: _559  and  _560
REMARK  228  A    between atoms: _559  and  _562
REMARK  229  A    between atoms: _562  and  _563
REMARK  230  A    between atoms: _566  and  _568
REMARK  231  A    between atoms: _568  and  _569
REMARK  232  A    between atoms: _568  and  _571
REMARK  233  A    between atoms: _571  and  _572
REMARK  234  A    between atoms: _578  and  _580
REMARK  235  A    between atoms: _580  and  _581
REMARK  236  A    between atoms: _580  and  _583
REMARK  237  A    between atoms: _583  and  _584
REMARK  238  A    between atoms: _586  and  _588
REMARK  239  A    between atoms: _588  and  _589
REMARK  240  A    between atoms: _588  and  _591
REMARK  241  A    between atoms: _591  and  _592
REMARK  242  A    between atoms: _595  and  _597
REMARK  243  A    between atoms: _597  and  _598
REMARK  244  A    between atoms: _597  and  _600
REMARK  245  A    between atoms: _600  and  _601
REMARK  246  A    between atoms: _607  and  _609
REMARK  247  A    between atoms: _609  and  _610
REMARK  248  A    between atoms: _612  and  _614
REMARK  249  A    between atoms: _614  and  _615
REMARK  250  A    between atoms: _614  and  _617
REMARK  251  A    between atoms: _617  and  _618
REMARK                            x       y       z     vdW  Elec       q    Type
REMARK                         _______ _______ _______ _____ _____    ______ ____
ROOT
ATOM      1  O   HOH     1      16.789   5.089  22.362  0.00  0.00    +0.000 OA
ENDROOT
TORSDOF 0
REMARK  Name = ../refined-set-2016/1bxq/1bxq_pocket.pdb
REMARK  251 active torsions:
REMARK  status: ('A' for Active; 'I' for Inactive)
REMARK    1  A    between atoms: _1  and  _3
REMARK    2  A    between atoms: _3  and  _4
REMARK    3  A    between atoms: _3  and  _6
REMARK    4  A    between atoms: _6  and  _7
REMARK    5  A    between atoms: _10  and  _12
REMARK    6  A    between atoms: _12  and  _13
REMARK    7  A    between atoms: _16  and  _18
REMARK    8  A    between atoms: _18  and  _19
REMARK    9  A    between atoms: _18  and  _21
REMARK   10  A    between atoms: _21  and  _22
REMARK   11  A    between atoms: _27  and  _29
REMARK   12  A    between atoms: _29  and  _30
REMARK   13  A    between atoms: _29  and  _32
REMARK   14  A    between atoms: _32  and  _33
REMARK   15  A    between atoms: _36  and  _38
REMARK   16  A    between atoms: _38  and  _39
REMARK   17  A    between atoms: _38  and  _41
REMARK   18  A    between atoms: _41  and  _42
REMARK   19  A    between atoms: _42  and  _43
REMARK   20  A    between atoms: _46  and  _48
REMARK   21  A    between atoms: _48  and  _49
REMARK   22  A    between atoms: _48  and  _51
REMARK   23  A    between atoms: _51  and  _52
REMARK   24  A    between atoms: _52  and  _53
REMARK   25  A    between atoms: _56  and  _58
REMARK   26  A    between atoms: _58  and  _59
REMARK   27  A    between atoms: _58  and  _61
REMARK   28  A    between atoms: _61  and  _62
REMARK   29  A    between atoms: _67  and  _68
REMARK   30  A    between atoms: _70  and  _72
REMARK   31  A    between atoms: _72  and  _73
REMARK   32  A    between atoms: _72  and  _75
REMARK   33  A    between atoms: _75  and  _76
REMARK   34  A    between atoms: _81  and  _83
REMARK   35  A    between atoms: _83  and  _84
REMARK   36  A    between atoms: _83  and  _86
REMARK   37  A    between atoms: _86  and  _87
REMARK   38  A    between atoms: _93  and  _95
REMARK   39  A    between atoms: _95  and  _96
REMARK   40  A    between atoms: _95  and  _98
REMARK   41  A    between atoms: _98  and  _99
REMARK   42  A    between atoms: _102  and  _104
REMARK   43  A    between atoms: _104  and  _105
REMARK   44  A    between atoms: _104  and  _107
REMARK   45  A    between atoms: _107  and  _108
REMARK   46  A    between atoms: _111  and  _113
REMARK   47  A    between atoms: _113  and  _114
REMARK   48  A    between atoms: _116  and  _118
REMARK   49  A    between atoms: _118  and  _119
REMARK   50  A    between atoms: _118  and  _121
REMARK   51  A    between atoms: _121  and  _122
REMARK   52  A    between atoms: _124  and  _126
REMARK   53  A    between atoms: _126  and  _127
REMARK   54  A    between atoms: _130  and  _132
REMARK   55  A    between atoms: _132  and  _133
REMARK   56  A    between atoms: _132  and  _135
REMARK   57  A    between atoms: _135  and  _136
REMARK   58  A    between atoms: _139  and  _141
REMARK   59  A    between atoms: _141  and  _142
REMARK   60  A    between atoms: _141  and  _144
REMARK   61  A    between atoms: _144  and  _145
REMARK   62  A    between atoms: _155  and  _157
REMARK   63  A    between atoms: _157  and  _158
REMARK   64  A    between atoms: _157  and  _160
REMARK   65  A    between atoms: _160  and  _161
REMARK   66  A    between atoms: _164  and  _166
REMARK   67  A    between atoms: _166  and  _167
REMARK   68  A    between atoms: _166  and  _169
REMARK   69  A    between atoms: _169  and  _170
REMARK   70  A    between atoms: _172  and  _174
REMARK   71  A    between atoms: _174  and  _175
REMARK   72  A    between atoms: _174  and  _177
REMARK   73  A    between atoms: _177  and  _178
REMARK   74  A    between atoms: _183  and  _184
REMARK   75  A    between atoms: _186  and  _188
REMARK   76  A    between atoms: _188  and  _189
REMARK   77  A    between atoms: _191  and  _193
REMARK   78  A    between atoms: _193  and  _194
REMARK   79  A    between atoms: _193  and  _196
REMARK   80  A    between atoms: _196  and  _197
REMARK   81  A    between atoms: _200  and  _202
REMARK   82  A    between atoms: _202  and  _203
REMARK   83  A    between atoms: _205  and  _207
REMARK   84  A    between atoms: _207  and  _208
REMARK   85  A    between atoms: _207  and  _210
REMARK   86  A    between atoms: _210  and  _211
REMARK   87  A    between atoms: _213  and  _215
REMARK   88  A    between atoms: _215  and  _216
REMARK   89  A    between atoms: _215  and  _218
REMARK   90  A    between atoms: _218  and  _219
REMARK   91  A    between atoms: _221  and  _223
REMARK   92  A    between atoms: _223  and  _224
REMARK   93  A    between atoms: _223  and  _226
REMARK   94  A    between atoms: _226  and  _227
REMARK   95  A    between atoms: _229  and  _231
REMARK   96  A    between atoms: _231  and  _232
REMARK   97  A    between atoms: _231  and  _234
REMARK   98  A    between atoms: _234  and  _235
REMARK   99  A    between atoms: _235  and  _236
REMARK  100  A    between atoms: _241  and  _243
REMARK  101  A    between atoms: _243  and  _244
REMARK  102  A    between atoms: _243  and  _246
REMARK  103  A    between atoms: _246  and  _247
REMARK  104  A    between atoms: _253  and  _255
REMARK  105  A    between atoms: _255  and  _256
REMARK  106  A    between atoms: _255  and  _258
REMARK  107  A    between atoms: _258  and  _259
REMARK  108  A    between atoms: _262  and  _264
REMARK  109  A    between atoms: _264  and  _265
REMARK  110  A    between atoms: _264  and  _267
REMARK  111  A    between atoms: _267  and  _268
REMARK  112  A    between atoms: _273  and  _275
REMARK  113  A    between atoms: _275  and  _276
REMARK  114  A    between atoms: _275  and  _278
REMARK  115  A    between atoms: _278  and  _279
REMARK  116  A    between atoms: _284  and  _286
REMARK  117  A    between atoms: _286  and  _287
REMARK  118  A    between atoms: _289  and  _291
REMARK  119  A    between atoms: _291  and  _292
REMARK  120  A    between atoms: _291  and  _294
REMARK  121  A    between atoms: _294  and  _295
REMARK  122  A    between atoms: _298  and  _300
REMARK  123  A    between atoms: _300  and  _301
REMARK  124  A    between atoms: _300  and  _303
REMARK  125  A    between atoms: _303  and  _304
REMARK  126  A    between atoms: _307  and  _309
REMARK  127  A    between atoms: _309  and  _310
REMARK  128  A    between atoms: _312  and  _314
REMARK  129  A    between atoms: _314  and  _315
REMARK  130  A    between atoms: _314  and  _317
REMARK  131  A    between atoms: _317  and  _318
REMARK  132  A    between atoms: _321  and  _323
REMARK  133  A    between atoms: _323  and  _324
REMARK  134  A    between atoms: _327  and  _329
REMARK  135  A    between atoms: _329  and  _330
REMARK  136  A    between atoms: _329  and  _332
REMARK  137  A    between atoms: _332  and  _333
REMARK  138  A    between atoms: _336  and  _338
REMARK  139  A    between atoms: _338  and  _339
REMARK  140  A    between atoms: _338  and  _341
REMARK  141  A    between atoms: _341  and  _342
REMARK  142  A    between atoms: _342  and  _343
REMARK  143  A    between atoms: _348  and  _350
REMARK  144  A    between atoms: _350  and  _351
REMARK  145  A    between atoms: _350  and  _353
REMARK  146  A    between atoms: _353  and  _354
REMARK  147  A    between atoms: _360  and  _362
REMARK  148  A    between atoms: _362  and  _363
REMARK  149  A    between atoms: _362  and  _365
REMARK  150  A    between atoms: _365  and  _366
REMARK  151  A    between atoms: _376  and  _378
REMARK  152  A    between atoms: _378  and  _379
REMARK  153  A    between atoms: _378  and  _381
REMARK  154  A    between atoms: _381  and  _382
REMARK  155  A    between atoms: _385  and  _387
REMARK  156  A    between atoms: _387  and  _388
REMARK  157  A    between atoms: _391  and  _393
REMARK  158  A    between atoms: _393  and  _394
REMARK  159  A    between atoms: _393  and  _396
REMARK  160  A    between atoms: _396  and  _397
REMARK  161  A    between atoms: _400  and  _402
REMARK  162  A    between atoms: _402  and  _403
REMARK  163  A    between atoms: _402  and  _405
REMARK  164  A    between atoms: _405  and  _406
REMARK  165  A    between atoms: _409  and  _411
REMARK  166  A    between atoms: _411  and  _412
REMARK  167  A    between atoms: _414  and  _416
REMARK  168  A    between atoms: _416  and  _417
REMARK  169  A    between atoms: _416  and  _419
REMARK  170  A    between atoms: _419  and  _420
REMARK  171  A    between atoms: _423  and  _425
REMARK  172  A    between atoms: _425  and  _426
REMARK  173  A    between atoms: _425  and  _428
REMARK  174  A    between atoms: _428  and  _429
REMARK  175  A    between atoms: _432  and  _434
REMARK  176  A    between atoms: _434  and  _435
REMARK  177  A    between atoms: _434  and  _437
REMARK  178  A    between atoms: _437  and  _438
REMARK  179  A    between atoms: _441  and  _443
REMARK  180  A    between atoms: _443  and  _444
REMARK  181  A    between atoms: _443  and  _446
REMARK  182  A    between atoms: _446  and  _447
REMARK  183  A    between atoms: _450  and  _452
REMARK  184  A    between atoms: _452  and  _453
REMARK  185  A    between atoms: _452  and  _455
REMARK  186  A    between atoms: _455  and  _456
REMARK  187  A    between atoms: _459  and  _461
REMARK  188  A    between atoms: _461  and  _462
REMARK  189  A    between atoms: _465  and  _467
REMARK  190  A    between atoms: _467  and  _468
REMARK  191  A    between atoms: _470  and  _472
REMARK  192  A    between atoms: _472  and  _473
REMARK  193  A    between atoms: _475  and  _477
REMARK  194  A    between atoms: _477  and  _478
REMARK  195  A    between atoms: _477  and  _480
REMARK  196  A    between atoms: _480  and  _481
REMARK  197  A    between atoms: _486  and  _487
REMARK  198  A    between atoms: _490  and  _491
REMARK  199  A    between atoms: _496  and  _498
REMARK  200  A    between atoms: _498  and  _499
REMARK  201  A    between atoms: _498  and  _501
REMARK  202  A    between atoms: _501  and  _502
REMARK  203  A    between atoms: _504  and  _506
REMARK  204  A    between atoms: _506  and  _507
REMARK  205  A    between atoms: _506  and  _509
REMARK  206  A    between atoms: _509  and  _510
REMARK  207  A    between atoms: _513  and  _515
REMARK  208  A    between atoms: _515  and  _516
REMARK  209  A    between atoms: _518  and  _520
REMARK  210  A    between atoms: _520  and  _521
REMARK  211  A    between atoms: _520  and  _523
REMARK  212  A    between atoms: _523  and  _524
REMARK  213  A    between atoms: _524  and  _525
REMARK  214  A    between atoms: _530  and  _532
REMARK  215  A    between atoms: _532  and  _533
REMARK  216  A    between atoms: _532  and  _535
REMARK  217  A    between atoms: _535  and  _536
REMARK  218  A    between atoms: _538  and  _540
REMARK  219  A    between atoms: _540  and  _541
REMARK  220  A    between atoms: _540  and  _543
REMARK  221  A    between atoms: _543  and  _544
REMARK  222  A    between atoms: _549  and  _551
REMARK  223  A    between atoms: _551  and  _552
REMARK  224  A    between atoms: _551  and  _554
REMARK  225  A    between atoms: _554  and  _555
REMARK  226  A    between atoms: _557  and  _559
REMARK  227  A    between atoms: _559  and  _560
REMARK  228  A    between atoms: _559  and  _562
REMARK  229  A    between atoms: _562  and  _563
REMARK  230  A    between atoms: _566  and  _568
REMARK  231  A    between atoms: _568  and  _569
REMARK  232  A    between atoms: _568  and  _571
REMARK  233  A    between atoms: _571  and  _572
REMARK  234  A    between atoms: _578  and  _580
REMARK  235  A    between atoms: _580  and  _581
REMARK  236  A    between atoms: _580  and  _583
REMARK  237  A    between atoms: _583  and  _584
REMARK  238  A    between atoms: _586  and  _588
REMARK  239  A    between atoms: _588  and  _589
REMARK  240  A    between atoms: _588  and  _591
REMARK  241  A    between atoms: _591  and  _592
REMARK  242  A    between atoms: _595  and  _597
REMARK  243  A    between atoms: _597  and  _598
REMARK  244  A    between atoms: _597  and  _600
REMARK  245  A    between atoms: _600  and  _601
REMARK  246  A    between atoms: _607  and  _609
REMARK  247  A    between atoms: _609  and  _610
REMARK  248  A    between atoms: _612  and  _614
REMARK  249  A    between atoms: _614  and  _615
REMARK  250  A    between atoms: _614  and  _617
REMARK  251  A    between atoms: _617  and  _618
REMARK                            x       y       z     vdW  Elec       q    Type
REMARK                         _______ _______ _______ _____ _____    ______ ____
ROOT
ATOM      1  O   HOH     1      22.317  -1.531  17.046  0.00  0.00    +0.000 OA
ENDROOT
TORSDOF 0
REMARK  Name = ../refined-set-2016/1bxq/1bxq_pocket.pdb
REMARK  251 active torsions:
REMARK  status: ('A' for Active; 'I' for Inactive)
REMARK    1  A    between atoms: _1  and  _3
REMARK    2  A    between atoms: _3  and  _4
REMARK    3  A    between atoms: _3  and  _6
REMARK    4  A    between atoms: _6  and  _7
REMARK    5  A    between atoms: _10  and  _12
REMARK    6  A    between atoms: _12  and  _13
REMARK    7  A    between atoms: _16  and  _18
REMARK    8  A    between atoms: _18  and  _19
REMARK    9  A    between atoms: _18  and  _21
REMARK   10  A    between atoms: _21  and  _22
REMARK   11  A    between atoms: _27  and  _29
REMARK   12  A    between atoms: _29  and  _30
REMARK   13  A    between atoms: _29  and  _32
REMARK   14  A    between atoms: _32  and  _33
REMARK   15  A    between atoms: _36  and  _38
REMARK   16  A    between atoms: _38  and  _39
REMARK   17  A    between atoms: _38  and  _41
REMARK   18  A    between atoms: _41  and  _42
REMARK   19  A    between atoms: _42  and  _43
REMARK   20  A    between atoms: _46  and  _48
REMARK   21  A    between atoms: _48  and  _49
REMARK   22  A    between atoms: _48  and  _51
REMARK   23  A    between atoms: _51  and  _52
REMARK   24  A    between atoms: _52  and  _53
REMARK   25  A    between atoms: _56  and  _58
REMARK   26  A    between atoms: _58  and  _59
REMARK   27  A    between atoms: _58  and  _61
REMARK   28  A    between atoms: _61  and  _62
REMARK   29  A    between atoms: _67  and  _68
REMARK   30  A    between atoms: _70  and  _72
REMARK   31  A    between atoms: _72  and  _73
REMARK   32  A    between atoms: _72  and  _75
REMARK   33  A    between atoms: _75  and  _76
REMARK   34  A    between atoms: _81  and  _83
REMARK   35  A    between atoms: _83  and  _84
REMARK   36  A    between atoms: _83  and  _86
REMARK   37  A    between atoms: _86  and  _87
REMARK   38  A    between atoms: _93  and  _95
REMARK   39  A    between atoms: _95  and  _96
REMARK   40  A    between atoms: _95  and  _98
REMARK   41  A    between atoms: _98  and  _99
REMARK   42  A    between atoms: _102  and  _104
REMARK   43  A    between atoms: _104  and  _105
REMARK   44  A    between atoms: _104  and  _107
REMARK   45  A    between atoms: _107  and  _108
REMARK   46  A    between atoms: _111  and  _113
REMARK   47  A    between atoms: _113  and  _114
REMARK   48  A    between atoms: _116  and  _118
REMARK   49  A    between atoms: _118  and  _119
REMARK   50  A    between atoms: _118  and  _121
REMARK   51  A    between atoms: _121  and  _122
REMARK   52  A    between atoms: _124  and  _126
REMARK   53  A    between atoms: _126  and  _127
REMARK   54  A    between atoms: _130  and  _132
REMARK   55  A    between atoms: _132  and  _133
REMARK   56  A    between atoms: _132  and  _135
REMARK   57  A    between atoms: _135  and  _136
REMARK   58  A    between atoms: _139  and  _141
REMARK   59  A    between atoms: _141  and  _142
REMARK   60  A    between atoms: _141  and  _144
REMARK   61  A    between atoms: _144  and  _145
REMARK   62  A    between atoms: _155  and  _157
REMARK   63  A    between atoms: _157  and  _158
REMARK   64  A    between atoms: _157  and  _160
REMARK   65  A    between atoms: _160  and  _161
REMARK   66  A    between atoms: _164  and  _166
REMARK   67  A    between atoms: _166  and  _167
REMARK   68  A    between atoms: _166  and  _169
REMARK   69  A    between atoms: _169  and  _170
REMARK   70  A    between atoms: _172  and  _174
REMARK   71  A    between atoms: _174  and  _175
REMARK   72  A    between atoms: _174  and  _177
REMARK   73  A    between atoms: _177  and  _178
REMARK   74  A    between atoms: _183  and  _184
REMARK   75  A    between atoms: _186  and  _188
REMARK   76  A    between atoms: _188  and  _189
REMARK   77  A    between atoms: _191  and  _193
REMARK   78  A    between atoms: _193  and  _194
REMARK   79  A    between atoms: _193  and  _196
REMARK   80  A    between atoms: _196  and  _197
REMARK   81  A    between atoms: _200  and  _202
REMARK   82  A    between atoms: _202  and  _203
REMARK   83  A    between atoms: _205  and  _207
REMARK   84  A    between atoms: _207  and  _208
REMARK   85  A    between atoms: _207  and  _210
REMARK   86  A    between atoms: _210  and  _211
REMARK   87  A    between atoms: _213  and  _215
REMARK   88  A    between atoms: _215  and  _216
REMARK   89  A    between atoms: _215  and  _218
REMARK   90  A    between atoms: _218  and  _219
REMARK   91  A    between atoms: _221  and  _223
REMARK   92  A    between atoms: _223  and  _224
REMARK   93  A    between atoms: _223  and  _226
REMARK   94  A    between atoms: _226  and  _227
REMARK   95  A    between atoms: _229  and  _231
REMARK   96  A    between atoms: _231  and  _232
REMARK   97  A    between atoms: _231  and  _234
REMARK   98  A    between atoms: _234  and  _235
REMARK   99  A    between atoms: _235  and  _236
REMARK  100  A    between atoms: _241  and  _243
REMARK  101  A    between atoms: _243  and  _244
REMARK  102  A    between atoms: _243  and  _246
REMARK  103  A    between atoms: _246  and  _247
REMARK  104  A    between atoms: _253  and  _255
REMARK  105  A    between atoms: _255  and  _256
REMARK  106  A    between atoms: _255  and  _258
REMARK  107  A    between atoms: _258  and  _259
REMARK  108  A    between atoms: _262  and  _264
REMARK  109  A    between atoms: _264  and  _265
REMARK  110  A    between atoms: _264  and  _267
REMARK  111  A    between atoms: _267  and  _268
REMARK  112  A    between atoms: _273  and  _275
REMARK  113  A    between atoms: _275  and  _276
REMARK  114  A    between atoms: _275  and  _278
REMARK  115  A    between atoms: _278  and  _279
REMARK  116  A    between atoms: _284  and  _286
REMARK  117  A    between atoms: _286  and  _287
REMARK  118  A    between atoms: _289  and  _291
REMARK  119  A    between atoms: _291  and  _292
REMARK  120  A    between atoms: _291  and  _294
REMARK  121  A    between atoms: _294  and  _295
REMARK  122  A    between atoms: _298  and  _300
REMARK  123  A    between atoms: _300  and  _301
REMARK  124  A    between atoms: _300  and  _303
REMARK  125  A    between atoms: _303  and  _304
REMARK  126  A    between atoms: _307  and  _309
REMARK  127  A    between atoms: _309  and  _310
REMARK  128  A    between atoms: _312  and  _314
REMARK  129  A    between atoms: _314  and  _315
REMARK  130  A    between atoms: _314  and  _317
REMARK  131  A    between atoms: _317  and  _318
REMARK  132  A    between atoms: _321  and  _323
REMARK  133  A    between atoms: _323  and  _324
REMARK  134  A    between atoms: _327  and  _329
REMARK  135  A    between atoms: _329  and  _330
REMARK  136  A    between atoms: _329  and  _332
REMARK  137  A    between atoms: _332  and  _333
REMARK  138  A    between atoms: _336  and  _338
REMARK  139  A    between atoms: _338  and  _339
REMARK  140  A    between atoms: _338  and  _341
REMARK  141  A    between atoms: _341  and  _342
REMARK  142  A    between atoms: _342  and  _343
REMARK  143  A    between atoms: _348  and  _350
REMARK  144  A    between atoms: _350  and  _351
REMARK  145  A    between atoms: _350  and  _353
REMARK  146  A    between atoms: _353  and  _354
REMARK  147  A    between atoms: _360  and  _362
REMARK  148  A    between atoms: _362  and  _363
REMARK  149  A    between atoms: _362  and  _365
REMARK  150  A    between atoms: _365  and  _366
REMARK  151  A    between atoms: _376  and  _378
REMARK  152  A    between atoms: _378  and  _379
REMARK  153  A    between atoms: _378  and  _381
REMARK  154  A    between atoms: _381  and  _382
REMARK  155  A    between atoms: _385  and  _387
REMARK  156  A    between atoms: _387  and  _388
REMARK  157  A    between atoms: _391  and  _393
REMARK  158  A    between atoms: _393  and  _394
REMARK  159  A    between atoms: _393  and  _396
REMARK  160  A    between atoms: _396  and  _397
REMARK  161  A    between atoms: _400  and  _402
REMARK  162  A    between atoms: _402  and  _403
REMARK  163  A    between atoms: _402  and  _405
REMARK  164  A    between atoms: _405  and  _406
REMARK  165  A    between atoms: _409  and  _411
REMARK  166  A    between atoms: _411  and  _412
REMARK  167  A    between atoms: _414  and  _416
REMARK  168  A    between atoms: _416  and  _417
REMARK  169  A    between atoms: _416  and  _419
REMARK  170  A    between atoms: _419  and  _420
REMARK  171  A    between atoms: _423  and  _425
REMARK  172  A    between atoms: _425  and  _426
REMARK  173  A    between atoms: _425  and  _428
REMARK  174  A    between atoms: _428  and  _429
REMARK  175  A    between atoms: _432  and  _434
REMARK  176  A    between atoms: _434  and  _435
REMARK  177  A    between atoms: _434  and  _437
REMARK  178  A    between atoms: _437  and  _438
REMARK  179  A    between atoms: _441  and  _443
REMARK  180  A    between atoms: _443  and  _444
REMARK  181  A    between atoms: _443  and  _446
REMARK  182  A    between atoms: _446  and  _447
REMARK  183  A    between atoms: _450  and  _452
REMARK  184  A    between atoms: _452  and  _453
REMARK  185  A    between atoms: _452  and  _455
REMARK  186  A    between atoms: _455  and  _456
REMARK  187  A    between atoms: _459  and  _461
REMARK  188  A    between atoms: _461  and  _462
REMARK  189  A    between atoms: _465  and  _467
REMARK  190  A    between atoms: _467  and  _468
REMARK  191  A    between atoms: _470  and  _472
REMARK  192  A    between atoms: _472  and  _473
REMARK  193  A    between atoms: _475  and  _477
REMARK  194  A    between atoms: _477  and  _478
REMARK  195  A    between atoms: _477  and  _480
REMARK  196  A    between atoms: _480  and  _481
REMARK  197  A    between atoms: _486  and  _487
REMARK  198  A    between atoms: _490  and  _491
REMARK  199  A    between atoms: _496  and  _498
REMARK  200  A    between atoms: _498  and  _499
REMARK  201  A    between atoms: _498  and  _501
REMARK  202  A    between atoms: _501  and  _502
REMARK  203  A    between atoms: _504  and  _506
REMARK  204  A    between atoms: _506  and  _507
REMARK  205  A    between atoms: _506  and  _509
REMARK  206  A    between atoms: _509  and  _510
REMARK  207  A    between atoms: _513  and  _515
REMARK  208  A    between atoms: _515  and  _516
REMARK  209  A    between atoms: _518  and  _520
REMARK  210  A    between atoms: _520  and  _521
REMARK  211  A    between atoms: _520  and  _523
REMARK  212  A    between atoms: _523  and  _524
REMARK  213  A    between atoms: _524  and  _525
REMARK  214  A    between atoms: _530  and  _532
REMARK  215  A    between atoms: _532  and  _533
REMARK  216  A    between atoms: _532  and  _535
REMARK  217  A    between atoms: _535  and  _536
REMARK  218  A    between atoms: _538  and  _540
REMARK  219  A    between atoms: _540  and  _541
REMARK  220  A    between atoms: _540  and  _543
REMARK  221  A    between atoms: _543  and  _544
REMARK  222  A    between atoms: _549  and  _551
REMARK  223  A    between atoms: _551  and  _552
REMARK  224  A    between atoms: _551  and  _554
REMARK  225  A    between atoms: _554  and  _555
REMARK  226  A    between atoms: _557  and  _559
REMARK  227  A    between atoms: _559  and  _560
REMARK  228  A    between atoms: _559  and  _562
REMARK  229  A    between atoms: _562  and  _563
REMARK  230  A    between atoms: _566  and  _568
REMARK  231  A    between atoms: _568  and  _569
REMARK  232  A    between atoms: _568  and  _571
REMARK  233  A    between atoms: _571  and  _572
REMARK  234  A    between atoms: _578  and  _580
REMARK  235  A    between atoms: _580  and  _581
REMARK  236  A    between atoms: _580  and  _583
REMARK  237  A    between atoms: _583  and  _584
REMARK  238  A    between atoms: _586  and  _588
REMARK  239  A    between atoms: _588  and  _589
REMARK  240  A    between atoms: _588  and  _591
REMARK  241  A    between atoms: _591  and  _592
REMARK  242  A    between atoms: _595  and  _597
REMARK  243  A    between atoms: _597  and  _598
REMARK  244  A    between atoms: _597  and  _600
REMARK  245  A    between atoms: _600  and  _601
REMARK  246  A    between atoms: _607  and  _609
REMARK  247  A    between atoms: _609  and  _610
REMARK  248  A    between atoms: _612  and  _614
REMARK  249  A    between atoms: _614  and  _615
REMARK  250  A    between atoms: _614  and  _617
REMARK  251  A    between atoms: _617  and  _618
REMARK                            x       y       z     vdW  Elec       q    Type
REMARK                         _______ _______ _______ _____ _____    ______ ____
ROOT
ATOM      1  O   HOH     1      16.717   8.136  26.084  0.00  0.00    +0.000 OA
ENDROOT
TORSDOF 0
REMARK  Name = ../refined-set-2016/1bxq/1bxq_pocket.pdb
REMARK  251 active torsions:
REMARK  status: ('A' for Active; 'I' for Inactive)
REMARK    1  A    between atoms: _1  and  _3
REMARK    2  A    between atoms: _3  and  _4
REMARK    3  A    between atoms: _3  and  _6
REMARK    4  A    between atoms: _6  and  _7
REMARK    5  A    between atoms: _10  and  _12
REMARK    6  A    between atoms: _12  and  _13
REMARK    7  A    between atoms: _16  and  _18
REMARK    8  A    between atoms: _18  and  _19
REMARK    9  A    between atoms: _18  and  _21
REMARK   10  A    between atoms: _21  and  _22
REMARK   11  A    between atoms: _27  and  _29
REMARK   12  A    between atoms: _29  and  _30
REMARK   13  A    between atoms: _29  and  _32
REMARK   14  A    between atoms: _32  and  _33
REMARK   15  A    between atoms: _36  and  _38
REMARK   16  A    between atoms: _38  and  _39
REMARK   17  A    between atoms: _38  and  _41
REMARK   18  A    between atoms: _41  and  _42
REMARK   19  A    between atoms: _42  and  _43
REMARK   20  A    between atoms: _46  and  _48
REMARK   21  A    between atoms: _48  and  _49
REMARK   22  A    between atoms: _48  and  _51
REMARK   23  A    between atoms: _51  and  _52
REMARK   24  A    between atoms: _52  and  _53
REMARK   25  A    between atoms: _56  and  _58
REMARK   26  A    between atoms: _58  and  _59
REMARK   27  A    between atoms: _58  and  _61
REMARK   28  A    between atoms: _61  and  _62
REMARK   29  A    between atoms: _67  and  _68
REMARK   30  A    between atoms: _70  and  _72
REMARK   31  A    between atoms: _72  and  _73
REMARK   32  A    between atoms: _72  and  _75
REMARK   33  A    between atoms: _75  and  _76
REMARK   34  A    between atoms: _81  and  _83
REMARK   35  A    between atoms: _83  and  _84
REMARK   36  A    between atoms: _83  and  _86
REMARK   37  A    between atoms: _86  and  _87
REMARK   38  A    between atoms: _93  and  _95
REMARK   39  A    between atoms: _95  and  _96
REMARK   40  A    between atoms: _95  and  _98
REMARK   41  A    between atoms: _98  and  _99
REMARK   42  A    between atoms: _102  and  _104
REMARK   43  A    between atoms: _104  and  _105
REMARK   44  A    between atoms: _104  and  _107
REMARK   45  A    between atoms: _107  and  _108
REMARK   46  A    between atoms: _111  and  _113
REMARK   47  A    between atoms: _113  and  _114
REMARK   48  A    between atoms: _116  and  _118
REMARK   49  A    between atoms: _118  and  _119
REMARK   50  A    between atoms: _118  and  _121
REMARK   51  A    between atoms: _121  and  _122
REMARK   52  A    between atoms: _124  and  _126
REMARK   53  A    between atoms: _126  and  _127
REMARK   54  A    between atoms: _130  and  _132
REMARK   55  A    between atoms: _132  and  _133
REMARK   56  A    between atoms: _132  and  _135
REMARK   57  A    between atoms: _135  and  _136
REMARK   58  A    between atoms: _139  and  _141
REMARK   59  A    between atoms: _141  and  _142
REMARK   60  A    between atoms: _141  and  _144
REMARK   61  A    between atoms: _144  and  _145
REMARK   62  A    between atoms: _155  and  _157
REMARK   63  A    between atoms: _157  and  _158
REMARK   64  A    between atoms: _157  and  _160
REMARK   65  A    between atoms: _160  and  _161
REMARK   66  A    between atoms: _164  and  _166
REMARK   67  A    between atoms: _166  and  _167
REMARK   68  A    between atoms: _166  and  _169
REMARK   69  A    between atoms: _169  and  _170
REMARK   70  A    between atoms: _172  and  _174
REMARK   71  A    between atoms: _174  and  _175
REMARK   72  A    between atoms: _174  and  _177
REMARK   73  A    between atoms: _177  and  _178
REMARK   74  A    between atoms: _183  and  _184
REMARK   75  A    between atoms: _186  and  _188
REMARK   76  A    between atoms: _188  and  _189
REMARK   77  A    between atoms: _191  and  _193
REMARK   78  A    between atoms: _193  and  _194
REMARK   79  A    between atoms: _193  and  _196
REMARK   80  A    between atoms: _196  and  _197
REMARK   81  A    between atoms: _200  and  _202
REMARK   82  A    between atoms: _202  and  _203
REMARK   83  A    between atoms: _205  and  _207
REMARK   84  A    between atoms: _207  and  _208
REMARK   85  A    between atoms: _207  and  _210
REMARK   86  A    between atoms: _210  and  _211
REMARK   87  A    between atoms: _213  and  _215
REMARK   88  A    between atoms: _215  and  _216
REMARK   89  A    between atoms: _215  and  _218
REMARK   90  A    between atoms: _218  and  _219
REMARK   91  A    between atoms: _221  and  _223
REMARK   92  A    between atoms: _223  and  _224
REMARK   93  A    between atoms: _223  and  _226
REMARK   94  A    between atoms: _226  and  _227
REMARK   95  A    between atoms: _229  and  _231
REMARK   96  A    between atoms: _231  and  _232
REMARK   97  A    between atoms: _231  and  _234
REMARK   98  A    between atoms: _234  and  _235
REMARK   99  A    between atoms: _235  and  _236
REMARK  100  A    between atoms: _241  and  _243
REMARK  101  A    between atoms: _243  and  _244
REMARK  102  A    between atoms: _243  and  _246
REMARK  103  A    between atoms: _246  and  _247
REMARK  104  A    between atoms: _253  and  _255
REMARK  105  A    between atoms: _255  and  _256
REMARK  106  A    between atoms: _255  and  _258
REMARK  107  A    between atoms: _258  and  _259
REMARK  108  A    between atoms: _262  and  _264
REMARK  109  A    between atoms: _264  and  _265
REMARK  110  A    between atoms: _264  and  _267
REMARK  111  A    between atoms: _267  and  _268
REMARK  112  A    between atoms: _273  and  _275
REMARK  113  A    between atoms: _275  and  _276
REMARK  114  A    between atoms: _275  and  _278
REMARK  115  A    between atoms: _278  and  _279
REMARK  116  A    between atoms: _284  and  _286
REMARK  117  A    between atoms: _286  and  _287
REMARK  118  A    between atoms: _289  and  _291
REMARK  119  A    between atoms: _291  and  _292
REMARK  120  A    between atoms: _291  and  _294
REMARK  121  A    between atoms: _294  and  _295
REMARK  122  A    between atoms: _298  and  _300
REMARK  123  A    between atoms: _300  and  _301
REMARK  124  A    between atoms: _300  and  _303
REMARK  125  A    between atoms: _303  and  _304
REMARK  126  A    between atoms: _307  and  _309
REMARK  127  A    between atoms: _309  and  _310
REMARK  128  A    between atoms: _312  and  _314
REMARK  129  A    between atoms: _314  and  _315
REMARK  130  A    between atoms: _314  and  _317
REMARK  131  A    between atoms: _317  and  _318
REMARK  132  A    between atoms: _321  and  _323
REMARK  133  A    between atoms: _323  and  _324
REMARK  134  A    between atoms: _327  and  _329
REMARK  135  A    between atoms: _329  and  _330
REMARK  136  A    between atoms: _329  and  _332
REMARK  137  A    between atoms: _332  and  _333
REMARK  138  A    between atoms: _336  and  _338
REMARK  139  A    between atoms: _338  and  _339
REMARK  140  A    between atoms: _338  and  _341
REMARK  141  A    between atoms: _341  and  _342
REMARK  142  A    between atoms: _342  and  _343
REMARK  143  A    between atoms: _348  and  _350
REMARK  144  A    between atoms: _350  and  _351
REMARK  145  A    between atoms: _350  and  _353
REMARK  146  A    between atoms: _353  and  _354
REMARK  147  A    between atoms: _360  and  _362
REMARK  148  A    between atoms: _362  and  _363
REMARK  149  A    between atoms: _362  and  _365
REMARK  150  A    between atoms: _365  and  _366
REMARK  151  A    between atoms: _376  and  _378
REMARK  152  A    between atoms: _378  and  _379
REMARK  153  A    between atoms: _378  and  _381
REMARK  154  A    between atoms: _381  and  _382
REMARK  155  A    between atoms: _385  and  _387
REMARK  156  A    between atoms: _387  and  _388
REMARK  157  A    between atoms: _391  and  _393
REMARK  158  A    between atoms: _393  and  _394
REMARK  159  A    between atoms: _393  and  _396
REMARK  160  A    between atoms: _396  and  _397
REMARK  161  A    between atoms: _400  and  _402
REMARK  162  A    between atoms: _402  and  _403
REMARK  163  A    between atoms: _402  and  _405
REMARK  164  A    between atoms: _405  and  _406
REMARK  165  A    between atoms: _409  and  _411
REMARK  166  A    between atoms: _411  and  _412
REMARK  167  A    between atoms: _414  and  _416
REMARK  168  A    between atoms: _416  and  _417
REMARK  169  A    between atoms: _416  and  _419
REMARK  170  A    between atoms: _419  and  _420
REMARK  171  A    between atoms: _423  and  _425
REMARK  172  A    between atoms: _425  and  _426
REMARK  173  A    between atoms: _425  and  _428
REMARK  174  A    between atoms: _428  and  _429
REMARK  175  A    between atoms: _432  and  _434
REMARK  176  A    between atoms: _434  and  _435
REMARK  177  A    between atoms: _434  and  _437
REMARK  178  A    between atoms: _437  and  _438
REMARK  179  A    between atoms: _441  and  _443
REMARK  180  A    between atoms: _443  and  _444
REMARK  181  A    between atoms: _443  and  _446
REMARK  182  A    between atoms: _446  and  _447
REMARK  183  A    between atoms: _450  and  _452
REMARK  184  A    between atoms: _452  and  _453
REMARK  185  A    between atoms: _452  and  _455
REMARK  186  A    between atoms: _455  and  _456
REMARK  187  A    between atoms: _459  and  _461
REMARK  188  A    between atoms: _461  and  _462
REMARK  189  A    between atoms: _465  and  _467
REMARK  190  A    between atoms: _467  and  _468
REMARK  191  A    between atoms: _470  and  _472
REMARK  192  A    between atoms: _472  and  _473
REMARK  193  A    between atoms: _475  and  _477
REMARK  194  A    between atoms: _477  and  _478
REMARK  195  A    between atoms: _477  and  _480
REMARK  196  A    between atoms: _480  and  _481
REMARK  197  A    between atoms: _486  and  _487
REMARK  198  A    between atoms: _490  and  _491
REMARK  199  A    between atoms: _496  and  _498
REMARK  200  A    between atoms: _498  and  _499
REMARK  201  A    between atoms: _498  and  _501
REMARK  202  A    between atoms: _501  and  _502
REMARK  203  A    between atoms: _504  and  _506
REMARK  204  A    between atoms: _506  and  _507
REMARK  205  A    between atoms: _506  and  _509
REMARK  206  A    between atoms: _509  and  _510
REMARK  207  A    between atoms: _513  and  _515
REMARK  208  A    between atoms: _515  and  _516
REMARK  209  A    between atoms: _518  and  _520
REMARK  210  A    between atoms: _520  and  _521
REMARK  211  A    between atoms: _520  and  _523
REMARK  212  A    between atoms: _523  and  _524
REMARK  213  A    between atoms: _524  and  _525
REMARK  214  A    between atoms: _530  and  _532
REMARK  215  A    between atoms: _532  and  _533
REMARK  216  A    between atoms: _532  and  _535
REMARK  217  A    between atoms: _535  and  _536
REMARK  218  A    between atoms: _538  and  _540
REMARK  219  A    between atoms: _540  and  _541
REMARK  220  A    between atoms: _540  and  _543
REMARK  221  A    between atoms: _543  and  _544
REMARK  222  A    between atoms: _549  and  _551
REMARK  223  A    between atoms: _551  and  _552
REMARK  224  A    between atoms: _551  and  _554
REMARK  225  A    between atoms: _554  and  _555
REMARK  226  A    between atoms: _557  and  _559
REMARK  227  A    between atoms: _559  and  _560
REMARK  228  A    between atoms: _559  and  _562
REMARK  229  A    between atoms: _562  and  _563
REMARK  230  A    between atoms: _566  and  _568
REMARK  231  A    between atoms: _568  and  _569
REMARK  232  A    between atoms: _568  and  _571
REMARK  233  A    between atoms: _571  and  _572
REMARK  234  A    between atoms: _578  and  _580
REMARK  235  A    between atoms: _580  and  _581
REMARK  236  A    between atoms: _580  and  _583
REMARK  237  A    between atoms: _583  and  _584
REMARK  238  A    between atoms: _586  and  _588
REMARK  239  A    between atoms: _588  and  _589
REMARK  240  A    between atoms: _588  and  _591
REMARK  241  A    between atoms: _591  and  _592
REMARK  242  A    between atoms: _595  and  _597
REMARK  243  A    between atoms: _597  and  _598
REMARK  244  A    between atoms: _597  and  _600
REMARK  245  A    between atoms: _600  and  _601
REMARK  246  A    between atoms: _607  and  _609
REMARK  247  A    between atoms: _609  and  _610
REMARK  248  A    between atoms: _612  and  _614
REMARK  249  A    between atoms: _614  and  _615
REMARK  250  A    between atoms: _614  and  _617
REMARK  251  A    between atoms: _617  and  _618
REMARK                            x       y       z     vdW  Elec       q    Type
REMARK                         _______ _______ _______ _____ _____    ______ ____
ROOT
ATOM      1  O   HOH     1      20.184   0.538  16.512  0.00  0.00    +0.000 OA
ENDROOT
TORSDOF 0
REMARK  Name = ../refined-set-2016/1bxq/1bxq_pocket.pdb
REMARK  251 active torsions:
REMARK  status: ('A' for Active; 'I' for Inactive)
REMARK    1  A    between atoms: _1  and  _3
REMARK    2  A    between atoms: _3  and  _4
REMARK    3  A    between atoms: _3  and  _6
REMARK    4  A    between atoms: _6  and  _7
REMARK    5  A    between atoms: _10  and  _12
REMARK    6  A    between atoms: _12  and  _13
REMARK    7  A    between atoms: _16  and  _18
REMARK    8  A    between atoms: _18  and  _19
REMARK    9  A    between atoms: _18  and  _21
REMARK   10  A    between atoms: _21  and  _22
REMARK   11  A    between atoms: _27  and  _29
REMARK   12  A    between atoms: _29  and  _30
REMARK   13  A    between atoms: _29  and  _32
REMARK   14  A    between atoms: _32  and  _33
REMARK   15  A    between atoms: _36  and  _38
REMARK   16  A    between atoms: _38  and  _39
REMARK   17  A    between atoms: _38  and  _41
REMARK   18  A    between atoms: _41  and  _42
REMARK   19  A    between atoms: _42  and  _43
REMARK   20  A    between atoms: _46  and  _48
REMARK   21  A    between atoms: _48  and  _49
REMARK   22  A    between atoms: _48  and  _51
REMARK   23  A    between atoms: _51  and  _52
REMARK   24  A    between atoms: _52  and  _53
REMARK   25  A    between atoms: _56  and  _58
REMARK   26  A    between atoms: _58  and  _59
REMARK   27  A    between atoms: _58  and  _61
REMARK   28  A    between atoms: _61  and  _62
REMARK   29  A    between atoms: _67  and  _68
REMARK   30  A    between atoms: _70  and  _72
REMARK   31  A    between atoms: _72  and  _73
REMARK   32  A    between atoms: _72  and  _75
REMARK   33  A    between atoms: _75  and  _76
REMARK   34  A    between atoms: _81  and  _83
REMARK   35  A    between atoms: _83  and  _84
REMARK   36  A    between atoms: _83  and  _86
REMARK   37  A    between atoms: _86  and  _87
REMARK   38  A    between atoms: _93  and  _95
REMARK   39  A    between atoms: _95  and  _96
REMARK   40  A    between atoms: _95  and  _98
REMARK   41  A    between atoms: _98  and  _99
REMARK   42  A    between atoms: _102  and  _104
REMARK   43  A    between atoms: _104  and  _105
REMARK   44  A    between atoms: _104  and  _107
REMARK   45  A    between atoms: _107  and  _108
REMARK   46  A    between atoms: _111  and  _113
REMARK   47  A    between atoms: _113  and  _114
REMARK   48  A    between atoms: _116  and  _118
REMARK   49  A    between atoms: _118  and  _119
REMARK   50  A    between atoms: _118  and  _121
REMARK   51  A    between atoms: _121  and  _122
REMARK   52  A    between atoms: _124  and  _126
REMARK   53  A    between atoms: _126  and  _127
REMARK   54  A    between atoms: _130  and  _132
REMARK   55  A    between atoms: _132  and  _133
REMARK   56  A    between atoms: _132  and  _135
REMARK   57  A    between atoms: _135  and  _136
REMARK   58  A    between atoms: _139  and  _141
REMARK   59  A    between atoms: _141  and  _142
REMARK   60  A    between atoms: _141  and  _144
REMARK   61  A    between atoms: _144  and  _145
REMARK   62  A    between atoms: _155  and  _157
REMARK   63  A    between atoms: _157  and  _158
REMARK   64  A    between atoms: _157  and  _160
REMARK   65  A    between atoms: _160  and  _161
REMARK   66  A    between atoms: _164  and  _166
REMARK   67  A    between atoms: _166  and  _167
REMARK   68  A    between atoms: _166  and  _169
REMARK   69  A    between atoms: _169  and  _170
REMARK   70  A    between atoms: _172  and  _174
REMARK   71  A    between atoms: _174  and  _175
REMARK   72  A    between atoms: _174  and  _177
REMARK   73  A    between atoms: _177  and  _178
REMARK   74  A    between atoms: _183  and  _184
REMARK   75  A    between atoms: _186  and  _188
REMARK   76  A    between atoms: _188  and  _189
REMARK   77  A    between atoms: _191  and  _193
REMARK   78  A    between atoms: _193  and  _194
REMARK   79  A    between atoms: _193  and  _196
REMARK   80  A    between atoms: _196  and  _197
REMARK   81  A    between atoms: _200  and  _202
REMARK   82  A    between atoms: _202  and  _203
REMARK   83  A    between atoms: _205  and  _207
REMARK   84  A    between atoms: _207  and  _208
REMARK   85  A    between atoms: _207  and  _210
REMARK   86  A    between atoms: _210  and  _211
REMARK   87  A    between atoms: _213  and  _215
REMARK   88  A    between atoms: _215  and  _216
REMARK   89  A    between atoms: _215  and  _218
REMARK   90  A    between atoms: _218  and  _219
REMARK   91  A    between atoms: _221  and  _223
REMARK   92  A    between atoms: _223  and  _224
REMARK   93  A    between atoms: _223  and  _226
REMARK   94  A    between atoms: _226  and  _227
REMARK   95  A    between atoms: _229  and  _231
REMARK   96  A    between atoms: _231  and  _232
REMARK   97  A    between atoms: _231  and  _234
REMARK   98  A    between atoms: _234  and  _235
REMARK   99  A    between atoms: _235  and  _236
REMARK  100  A    between atoms: _241  and  _243
REMARK  101  A    between atoms: _243  and  _244
REMARK  102  A    between atoms: _243  and  _246
REMARK  103  A    between atoms: _246  and  _247
REMARK  104  A    between atoms: _253  and  _255
REMARK  105  A    between atoms: _255  and  _256
REMARK  106  A    between atoms: _255  and  _258
REMARK  107  A    between atoms: _258  and  _259
REMARK  108  A    between atoms: _262  and  _264
REMARK  109  A    between atoms: _264  and  _265
REMARK  110  A    between atoms: _264  and  _267
REMARK  111  A    between atoms: _267  and  _268
REMARK  112  A    between atoms: _273  and  _275
REMARK  113  A    between atoms: _275  and  _276
REMARK  114  A    between atoms: _275  and  _278
REMARK  115  A    between atoms: _278  and  _279
REMARK  116  A    between atoms: _284  and  _286
REMARK  117  A    between atoms: _286  and  _287
REMARK  118  A    between atoms: _289  and  _291
REMARK  119  A    between atoms: _291  and  _292
REMARK  120  A    between atoms: _291  and  _294
REMARK  121  A    between atoms: _294  and  _295
REMARK  122  A    between atoms: _298  and  _300
REMARK  123  A    between atoms: _300  and  _301
REMARK  124  A    between atoms: _300  and  _303
REMARK  125  A    between atoms: _303  and  _304
REMARK  126  A    between atoms: _307  and  _309
REMARK  127  A    between atoms: _309  and  _310
REMARK  128  A    between atoms: _312  and  _314
REMARK  129  A    between atoms: _314  and  _315
REMARK  130  A    between atoms: _314  and  _317
REMARK  131  A    between atoms: _317  and  _318
REMARK  132  A    between atoms: _321  and  _323
REMARK  133  A    between atoms: _323  and  _324
REMARK  134  A    between atoms: _327  and  _329
REMARK  135  A    between atoms: _329  and  _330
REMARK  136  A    between atoms: _329  and  _332
REMARK  137  A    between atoms: _332  and  _333
REMARK  138  A    between atoms: _336  and  _338
REMARK  139  A    between atoms: _338  and  _339
REMARK  140  A    between atoms: _338  and  _341
REMARK  141  A    between atoms: _341  and  _342
REMARK  142  A    between atoms: _342  and  _343
REMARK  143  A    between atoms: _348  and  _350
REMARK  144  A    between atoms: _350  and  _351
REMARK  145  A    between atoms: _350  and  _353
REMARK  146  A    between atoms: _353  and  _354
REMARK  147  A    between atoms: _360  and  _362
REMARK  148  A    between atoms: _362  and  _363
REMARK  149  A    between atoms: _362  and  _365
REMARK  150  A    between atoms: _365  and  _366
REMARK  151  A    between atoms: _376  and  _378
REMARK  152  A    between atoms: _378  and  _379
REMARK  153  A    between atoms: _378  and  _381
REMARK  154  A    between atoms: _381  and  _382
REMARK  155  A    between atoms: _385  and  _387
REMARK  156  A    between atoms: _387  and  _388
REMARK  157  A    between atoms: _391  and  _393
REMARK  158  A    between atoms: _393  and  _394
REMARK  159  A    between atoms: _393  and  _396
REMARK  160  A    between atoms: _396  and  _397
REMARK  161  A    between atoms: _400  and  _402
REMARK  162  A    between atoms: _402  and  _403
REMARK  163  A    between atoms: _402  and  _405
REMARK  164  A    between atoms: _405  and  _406
REMARK  165  A    between atoms: _409  and  _411
REMARK  166  A    between atoms: _411  and  _412
REMARK  167  A    between atoms: _414  and  _416
REMARK  168  A    between atoms: _416  and  _417
REMARK  169  A    between atoms: _416  and  _419
REMARK  170  A    between atoms: _419  and  _420
REMARK  171  A    between atoms: _423  and  _425
REMARK  172  A    between atoms: _425  and  _426
REMARK  173  A    between atoms: _425  and  _428
REMARK  174  A    between atoms: _428  and  _429
REMARK  175  A    between atoms: _432  and  _434
REMARK  176  A    between atoms: _434  and  _435
REMARK  177  A    between atoms: _434  and  _437
REMARK  178  A    between atoms: _437  and  _438
REMARK  179  A    between atoms: _441  and  _443
REMARK  180  A    between atoms: _443  and  _444
REMARK  181  A    between atoms: _443  and  _446
REMARK  182  A    between atoms: _446  and  _447
REMARK  183  A    between atoms: _450  and  _452
REMARK  184  A    between atoms: _452  and  _453
REMARK  185  A    between atoms: _452  and  _455
REMARK  186  A    between atoms: _455  and  _456
REMARK  187  A    between atoms: _459  and  _461
REMARK  188  A    between atoms: _461  and  _462
REMARK  189  A    between atoms: _465  and  _467
REMARK  190  A    between atoms: _467  and  _468
REMARK  191  A    between atoms: _470  and  _472
REMARK  192  A    between atoms: _472  and  _473
REMARK  193  A    between atoms: _475  and  _477
REMARK  194  A    between atoms: _477  and  _478
REMARK  195  A    between atoms: _477  and  _480
REMARK  196  A    between atoms: _480  and  _481
REMARK  197  A    between atoms: _486  and  _487
REMARK  198  A    between atoms: _490  and  _491
REMARK  199  A    between atoms: _496  and  _498
REMARK  200  A    between atoms: _498  and  _499
REMARK  201  A    between atoms: _498  and  _501
REMARK  202  A    between atoms: _501  and  _502
REMARK  203  A    between atoms: _504  and  _506
REMARK  204  A    between atoms: _506  and  _507
REMARK  205  A    between atoms: _506  and  _509
REMARK  206  A    between atoms: _509  and  _510
REMARK  207  A    between atoms: _513  and  _515
REMARK  208  A    between atoms: _515  and  _516
REMARK  209  A    between atoms: _518  and  _520
REMARK  210  A    between atoms: _520  and  _521
REMARK  211  A    between atoms: _520  and  _523
REMARK  212  A    between atoms: _523  and  _524
REMARK  213  A    between atoms: _524  and  _525
REMARK  214  A    between atoms: _530  and  _532
REMARK  215  A    between atoms: _532  and  _533
REMARK  216  A    between atoms: _532  and  _535
REMARK  217  A    between atoms: _535  and  _536
REMARK  218  A    between atoms: _538  and  _540
REMARK  219  A    between atoms: _540  and  _541
REMARK  220  A    between atoms: _540  and  _543
REMARK  221  A    between atoms: _543  and  _544
REMARK  222  A    between atoms: _549  and  _551
REMARK  223  A    between atoms: _551  and  _552
REMARK  224  A    between atoms: _551  and  _554
REMARK  225  A    between atoms: _554  and  _555
REMARK  226  A    between atoms: _557  and  _559
REMARK  227  A    between atoms: _559  and  _560
REMARK  228  A    between atoms: _559  and  _562
REMARK  229  A    between atoms: _562  and  _563
REMARK  230  A    between atoms: _566  and  _568
REMARK  231  A    between atoms: _568  and  _569
REMARK  232  A    between atoms: _568  and  _571
REMARK  233  A    between atoms: _571  and  _572
REMARK  234  A    between atoms: _578  and  _580
REMARK  235  A    between atoms: _580  and  _581
REMARK  236  A    between atoms: _580  and  _583
REMARK  237  A    between atoms: _583  and  _584
REMARK  238  A    between atoms: _586  and  _588
REMARK  239  A    between atoms: _588  and  _589
REMARK  240  A    between atoms: _588  and  _591
REMARK  241  A    between atoms: _591  and  _592
REMARK  242  A    between atoms: _595  and  _597
REMARK  243  A    between atoms: _597  and  _598
REMARK  244  A    between atoms: _597  and  _600
REMARK  245  A    between atoms: _600  and  _601
REMARK  246  A    between atoms: _607  and  _609
REMARK  247  A    between atoms: _609  and  _610
REMARK  248  A    between atoms: _612  and  _614
REMARK  249  A    between atoms: _614  and  _615
REMARK  250  A    between atoms: _614  and  _617
REMARK  251  A    between atoms: _617  and  _618
REMARK                            x       y       z     vdW  Elec       q    Type
REMARK                         _______ _______ _______ _____ _____    ______ ____
ROOT
ATOM      1  O   HOH     1      14.856   0.921  11.825  0.00  0.00    +0.000 OA
ENDROOT
TORSDOF 0
REMARK  Name = ../refined-set-2016/1bxq/1bxq_pocket.pdb
REMARK  251 active torsions:
REMARK  status: ('A' for Active; 'I' for Inactive)
REMARK    1  A    between atoms: _1  and  _3
REMARK    2  A    between atoms: _3  and  _4
REMARK    3  A    between atoms: _3  and  _6
REMARK    4  A    between atoms: _6  and  _7
REMARK    5  A    between atoms: _10  and  _12
REMARK    6  A    between atoms: _12  and  _13
REMARK    7  A    between atoms: _16  and  _18
REMARK    8  A    between atoms: _18  and  _19
REMARK    9  A    between atoms: _18  and  _21
REMARK   10  A    between atoms: _21  and  _22
REMARK   11  A    between atoms: _27  and  _29
REMARK   12  A    between atoms: _29  and  _30
REMARK   13  A    between atoms: _29  and  _32
REMARK   14  A    between atoms: _32  and  _33
REMARK   15  A    between atoms: _36  and  _38
REMARK   16  A    between atoms: _38  and  _39
REMARK   17  A    between atoms: _38  and  _41
REMARK   18  A    between atoms: _41  and  _42
REMARK   19  A    between atoms: _42  and  _43
REMARK   20  A    between atoms: _46  and  _48
REMARK   21  A    between atoms: _48  and  _49
REMARK   22  A    between atoms: _48  and  _51
REMARK   23  A    between atoms: _51  and  _52
REMARK   24  A    between atoms: _52  and  _53
REMARK   25  A    between atoms: _56  and  _58
REMARK   26  A    between atoms: _58  and  _59
REMARK   27  A    between atoms: _58  and  _61
REMARK   28  A    between atoms: _61  and  _62
REMARK   29  A    between atoms: _67  and  _68
REMARK   30  A    between atoms: _70  and  _72
REMARK   31  A    between atoms: _72  and  _73
REMARK   32  A    between atoms: _72  and  _75
REMARK   33  A    between atoms: _75  and  _76
REMARK   34  A    between atoms: _81  and  _83
REMARK   35  A    between atoms: _83  and  _84
REMARK   36  A    between atoms: _83  and  _86
REMARK   37  A    between atoms: _86  and  _87
REMARK   38  A    between atoms: _93  and  _95
REMARK   39  A    between atoms: _95  and  _96
REMARK   40  A    between atoms: _95  and  _98
REMARK   41  A    between atoms: _98  and  _99
REMARK   42  A    between atoms: _102  and  _104
REMARK   43  A    between atoms: _104  and  _105
REMARK   44  A    between atoms: _104  and  _107
REMARK   45  A    between atoms: _107  and  _108
REMARK   46  A    between atoms: _111  and  _113
REMARK   47  A    between atoms: _113  and  _114
REMARK   48  A    between atoms: _116  and  _118
REMARK   49  A    between atoms: _118  and  _119
REMARK   50  A    between atoms: _118  and  _121
REMARK   51  A    between atoms: _121  and  _122
REMARK   52  A    between atoms: _124  and  _126
REMARK   53  A    between atoms: _126  and  _127
REMARK   54  A    between atoms: _130  and  _132
REMARK   55  A    between atoms: _132  and  _133
REMARK   56  A    between atoms: _132  and  _135
REMARK   57  A    between atoms: _135  and  _136
REMARK   58  A    between atoms: _139  and  _141
REMARK   59  A    between atoms: _141  and  _142
REMARK   60  A    between atoms: _141  and  _144
REMARK   61  A    between atoms: _144  and  _145
REMARK   62  A    between atoms: _155  and  _157
REMARK   63  A    between atoms: _157  and  _158
REMARK   64  A    between atoms: _157  and  _160
REMARK   65  A    between atoms: _160  and  _161
REMARK   66  A    between atoms: _164  and  _166
REMARK   67  A    between atoms: _166  and  _167
REMARK   68  A    between atoms: _166  and  _169
REMARK   69  A    between atoms: _169  and  _170
REMARK   70  A    between atoms: _172  and  _174
REMARK   71  A    between atoms: _174  and  _175
REMARK   72  A    between atoms: _174  and  _177
REMARK   73  A    between atoms: _177  and  _178
REMARK   74  A    between atoms: _183  and  _184
REMARK   75  A    between atoms: _186  and  _188
REMARK   76  A    between atoms: _188  and  _189
REMARK   77  A    between atoms: _191  and  _193
REMARK   78  A    between atoms: _193  and  _194
REMARK   79  A    between atoms: _193  and  _196
REMARK   80  A    between atoms: _196  and  _197
REMARK   81  A    between atoms: _200  and  _202
REMARK   82  A    between atoms: _202  and  _203
REMARK   83  A    between atoms: _205  and  _207
REMARK   84  A    between atoms: _207  and  _208
REMARK   85  A    between atoms: _207  and  _210
REMARK   86  A    between atoms: _210  and  _211
REMARK   87  A    between atoms: _213  and  _215
REMARK   88  A    between atoms: _215  and  _216
REMARK   89  A    between atoms: _215  and  _218
REMARK   90  A    between atoms: _218  and  _219
REMARK   91  A    between atoms: _221  and  _223
REMARK   92  A    between atoms: _223  and  _224
REMARK   93  A    between atoms: _223  and  _226
REMARK   94  A    between atoms: _226  and  _227
REMARK   95  A    between atoms: _229  and  _231
REMARK   96  A    between atoms: _231  and  _232
REMARK   97  A    between atoms: _231  and  _234
REMARK   98  A    between atoms: _234  and  _235
REMARK   99  A    between atoms: _235  and  _236
REMARK  100  A    between atoms: _241  and  _243
REMARK  101  A    between atoms: _243  and  _244
REMARK  102  A    between atoms: _243  and  _246
REMARK  103  A    between atoms: _246  and  _247
REMARK  104  A    between atoms: _253  and  _255
REMARK  105  A    between atoms: _255  and  _256
REMARK  106  A    between atoms: _255  and  _258
REMARK  107  A    between atoms: _258  and  _259
REMARK  108  A    between atoms: _262  and  _264
REMARK  109  A    between atoms: _264  and  _265
REMARK  110  A    between atoms: _264  and  _267
REMARK  111  A    between atoms: _267  and  _268
REMARK  112  A    between atoms: _273  and  _275
REMARK  113  A    between atoms: _275  and  _276
REMARK  114  A    between atoms: _275  and  _278
REMARK  115  A    between atoms: _278  and  _279
REMARK  116  A    between atoms: _284  and  _286
REMARK  117  A    between atoms: _286  and  _287
REMARK  118  A    between atoms: _289  and  _291
REMARK  119  A    between atoms: _291  and  _292
REMARK  120  A    between atoms: _291  and  _294
REMARK  121  A    between atoms: _294  and  _295
REMARK  122  A    between atoms: _298  and  _300
REMARK  123  A    between atoms: _300  and  _301
REMARK  124  A    between atoms: _300  and  _303
REMARK  125  A    between atoms: _303  and  _304
REMARK  126  A    between atoms: _307  and  _309
REMARK  127  A    between atoms: _309  and  _310
REMARK  128  A    between atoms: _312  and  _314
REMARK  129  A    between atoms: _314  and  _315
REMARK  130  A    between atoms: _314  and  _317
REMARK  131  A    between atoms: _317  and  _318
REMARK  132  A    between atoms: _321  and  _323
REMARK  133  A    between atoms: _323  and  _324
REMARK  134  A    between atoms: _327  and  _329
REMARK  135  A    between atoms: _329  and  _330
REMARK  136  A    between atoms: _329  and  _332
REMARK  137  A    between atoms: _332  and  _333
REMARK  138  A    between atoms: _336  and  _338
REMARK  139  A    between atoms: _338  and  _339
REMARK  140  A    between atoms: _338  and  _341
REMARK  141  A    between atoms: _341  and  _342
REMARK  142  A    between atoms: _342  and  _343
REMARK  143  A    between atoms: _348  and  _350
REMARK  144  A    between atoms: _350  and  _351
REMARK  145  A    between atoms: _350  and  _353
REMARK  146  A    between atoms: _353  and  _354
REMARK  147  A    between atoms: _360  and  _362
REMARK  148  A    between atoms: _362  and  _363
REMARK  149  A    between atoms: _362  and  _365
REMARK  150  A    between atoms: _365  and  _366
REMARK  151  A    between atoms: _376  and  _378
REMARK  152  A    between atoms: _378  and  _379
REMARK  153  A    between atoms: _378  and  _381
REMARK  154  A    between atoms: _381  and  _382
REMARK  155  A    between atoms: _385  and  _387
REMARK  156  A    between atoms: _387  and  _388
REMARK  157  A    between atoms: _391  and  _393
REMARK  158  A    between atoms: _393  and  _394
REMARK  159  A    between atoms: _393  and  _396
REMARK  160  A    between atoms: _396  and  _397
REMARK  161  A    between atoms: _400  and  _402
REMARK  162  A    between atoms: _402  and  _403
REMARK  163  A    between atoms: _402  and  _405
REMARK  164  A    between atoms: _405  and  _406
REMARK  165  A    between atoms: _409  and  _411
REMARK  166  A    between atoms: _411  and  _412
REMARK  167  A    between atoms: _414  and  _416
REMARK  168  A    between atoms: _416  and  _417
REMARK  169  A    between atoms: _416  and  _419
REMARK  170  A    between atoms: _419  and  _420
REMARK  171  A    between atoms: _423  and  _425
REMARK  172  A    between atoms: _425  and  _426
REMARK  173  A    between atoms: _425  and  _428
REMARK  174  A    between atoms: _428  and  _429
REMARK  175  A    between atoms: _432  and  _434
REMARK  176  A    between atoms: _434  and  _435
REMARK  177  A    between atoms: _434  and  _437
REMARK  178  A    between atoms: _437  and  _438
REMARK  179  A    between atoms: _441  and  _443
REMARK  180  A    between atoms: _443  and  _444
REMARK  181  A    between atoms: _443  and  _446
REMARK  182  A    between atoms: _446  and  _447
REMARK  183  A    between atoms: _450  and  _452
REMARK  184  A    between atoms: _452  and  _453
REMARK  185  A    between atoms: _452  and  _455
REMARK  186  A    between atoms: _455  and  _456
REMARK  187  A    between atoms: _459  and  _461
REMARK  188  A    between atoms: _461  and  _462
REMARK  189  A    between atoms: _465  and  _467
REMARK  190  A    between atoms: _467  and  _468
REMARK  191  A    between atoms: _470  and  _472
REMARK  192  A    between atoms: _472  and  _473
REMARK  193  A    between atoms: _475  and  _477
REMARK  194  A    between atoms: _477  and  _478
REMARK  195  A    between atoms: _477  and  _480
REMARK  196  A    between atoms: _480  and  _481
REMARK  197  A    between atoms: _486  and  _487
REMARK  198  A    between atoms: _490  and  _491
REMARK  199  A    between atoms: _496  and  _498
REMARK  200  A    between atoms: _498  and  _499
REMARK  201  A    between atoms: _498  and  _501
REMARK  202  A    between atoms: _501  and  _502
REMARK  203  A    between atoms: _504  and  _506
REMARK  204  A    between atoms: _506  and  _507
REMARK  205  A    between atoms: _506  and  _509
REMARK  206  A    between atoms: _509  and  _510
REMARK  207  A    between atoms: _513  and  _515
REMARK  208  A    between atoms: _515  and  _516
REMARK  209  A    between atoms: _518  and  _520
REMARK  210  A    between atoms: _520  and  _521
REMARK  211  A    between atoms: _520  and  _523
REMARK  212  A    between atoms: _523  and  _524
REMARK  213  A    between atoms: _524  and  _525
REMARK  214  A    between atoms: _530  and  _532
REMARK  215  A    between atoms: _532  and  _533
REMARK  216  A    between atoms: _532  and  _535
REMARK  217  A    between atoms: _535  and  _536
REMARK  218  A    between atoms: _538  and  _540
REMARK  219  A    between atoms: _540  and  _541
REMARK  220  A    between atoms: _540  and  _543
REMARK  221  A    between atoms: _543  and  _544
REMARK  222  A    between atoms: _549  and  _551
REMARK  223  A    between atoms: _551  and  _552
REMARK  224  A    between atoms: _551  and  _554
REMARK  225  A    between atoms: _554  and  _555
REMARK  226  A    between atoms: _557  and  _559
REMARK  227  A    between atoms: _559  and  _560
REMARK  228  A    between atoms: _559  and  _562
REMARK  229  A    between atoms: _562  and  _563
REMARK  230  A    between atoms: _566  and  _568
REMARK  231  A    between atoms: _568  and  _569
REMARK  232  A    between atoms: _568  and  _571
REMARK  233  A    between atoms: _571  and  _572
REMARK  234  A    between atoms: _578  and  _580
REMARK  235  A    between atoms: _580  and  _581
REMARK  236  A    between atoms: _580  and  _583
REMARK  237  A    between atoms: _583  and  _584
REMARK  238  A    between atoms: _586  and  _588
REMARK  239  A    between atoms: _588  and  _589
REMARK  240  A    between atoms: _588  and  _591
REMARK  241  A    between atoms: _591  and  _592
REMARK  242  A    between atoms: _595  and  _597
REMARK  243  A    between atoms: _597  and  _598
REMARK  244  A    between atoms: _597  and  _600
REMARK  245  A    between atoms: _600  and  _601
REMARK  246  A    between atoms: _607  and  _609
REMARK  247  A    between atoms: _609  and  _610
REMARK  248  A    between atoms: _612  and  _614
REMARK  249  A    between atoms: _614  and  _615
REMARK  250  A    between atoms: _614  and  _617
REMARK  251  A    between atoms: _617  and  _618
REMARK                            x       y       z     vdW  Elec       q    Type
REMARK                         _______ _______ _______ _____ _____    ______ ____
ROOT
ATOM      1  O   HOH     1      10.606   5.107  26.238  0.00  0.00    +0.000 OA
ENDROOT
TORSDOF 0
REMARK  Name = ../refined-set-2016/1bxq/1bxq_pocket.pdb
REMARK  251 active torsions:
REMARK  status: ('A' for Active; 'I' for Inactive)
REMARK    1  A    between atoms: _1  and  _3
REMARK    2  A    between atoms: _3  and  _4
REMARK    3  A    between atoms: _3  and  _6
REMARK    4  A    between atoms: _6  and  _7
REMARK    5  A    between atoms: _10  and  _12
REMARK    6  A    between atoms: _12  and  _13
REMARK    7  A    between atoms: _16  and  _18
REMARK    8  A    between atoms: _18  and  _19
REMARK    9  A    between atoms: _18  and  _21
REMARK   10  A    between atoms: _21  and  _22
REMARK   11  A    between atoms: _27  and  _29
REMARK   12  A    between atoms: _29  and  _30
REMARK   13  A    between atoms: _29  and  _32
REMARK   14  A    between atoms: _32  and  _33
REMARK   15  A    between atoms: _36  and  _38
REMARK   16  A    between atoms: _38  and  _39
REMARK   17  A    between atoms: _38  and  _41
REMARK   18  A    between atoms: _41  and  _42
REMARK   19  A    between atoms: _42  and  _43
REMARK   20  A    between atoms: _46  and  _48
REMARK   21  A    between atoms: _48  and  _49
REMARK   22  A    between atoms: _48  and  _51
REMARK   23  A    between atoms: _51  and  _52
REMARK   24  A    between atoms: _52  and  _53
REMARK   25  A    between atoms: _56  and  _58
REMARK   26  A    between atoms: _58  and  _59
REMARK   27  A    between atoms: _58  and  _61
REMARK   28  A    between atoms: _61  and  _62
REMARK   29  A    between atoms: _67  and  _68
REMARK   30  A    between atoms: _70  and  _72
REMARK   31  A    between atoms: _72  and  _73
REMARK   32  A    between atoms: _72  and  _75
REMARK   33  A    between atoms: _75  and  _76
REMARK   34  A    between atoms: _81  and  _83
REMARK   35  A    between atoms: _83  and  _84
REMARK   36  A    between atoms: _83  and  _86
REMARK   37  A    between atoms: _86  and  _87
REMARK   38  A    between atoms: _93  and  _95
REMARK   39  A    between atoms: _95  and  _96
REMARK   40  A    between atoms: _95  and  _98
REMARK   41  A    between atoms: _98  and  _99
REMARK   42  A    between atoms: _102  and  _104
REMARK   43  A    between atoms: _104  and  _105
REMARK   44  A    between atoms: _104  and  _107
REMARK   45  A    between atoms: _107  and  _108
REMARK   46  A    between atoms: _111  and  _113
REMARK   47  A    between atoms: _113  and  _114
REMARK   48  A    between atoms: _116  and  _118
REMARK   49  A    between atoms: _118  and  _119
REMARK   50  A    between atoms: _118  and  _121
REMARK   51  A    between atoms: _121  and  _122
REMARK   52  A    between atoms: _124  and  _126
REMARK   53  A    between atoms: _126  and  _127
REMARK   54  A    between atoms: _130  and  _132
REMARK   55  A    between atoms: _132  and  _133
REMARK   56  A    between atoms: _132  and  _135
REMARK   57  A    between atoms: _135  and  _136
REMARK   58  A    between atoms: _139  and  _141
REMARK   59  A    between atoms: _141  and  _142
REMARK   60  A    between atoms: _141  and  _144
REMARK   61  A    between atoms: _144  and  _145
REMARK   62  A    between atoms: _155  and  _157
REMARK   63  A    between atoms: _157  and  _158
REMARK   64  A    between atoms: _157  and  _160
REMARK   65  A    between atoms: _160  and  _161
REMARK   66  A    between atoms: _164  and  _166
REMARK   67  A    between atoms: _166  and  _167
REMARK   68  A    between atoms: _166  and  _169
REMARK   69  A    between atoms: _169  and  _170
REMARK   70  A    between atoms: _172  and  _174
REMARK   71  A    between atoms: _174  and  _175
REMARK   72  A    between atoms: _174  and  _177
REMARK   73  A    between atoms: _177  and  _178
REMARK   74  A    between atoms: _183  and  _184
REMARK   75  A    between atoms: _186  and  _188
REMARK   76  A    between atoms: _188  and  _189
REMARK   77  A    between atoms: _191  and  _193
REMARK   78  A    between atoms: _193  and  _194
REMARK   79  A    between atoms: _193  and  _196
REMARK   80  A    between atoms: _196  and  _197
REMARK   81  A    between atoms: _200  and  _202
REMARK   82  A    between atoms: _202  and  _203
REMARK   83  A    between atoms: _205  and  _207
REMARK   84  A    between atoms: _207  and  _208
REMARK   85  A    between atoms: _207  and  _210
REMARK   86  A    between atoms: _210  and  _211
REMARK   87  A    between atoms: _213  and  _215
REMARK   88  A    between atoms: _215  and  _216
REMARK   89  A    between atoms: _215  and  _218
REMARK   90  A    between atoms: _218  and  _219
REMARK   91  A    between atoms: _221  and  _223
REMARK   92  A    between atoms: _223  and  _224
REMARK   93  A    between atoms: _223  and  _226
REMARK   94  A    between atoms: _226  and  _227
REMARK   95  A    between atoms: _229  and  _231
REMARK   96  A    between atoms: _231  and  _232
REMARK   97  A    between atoms: _231  and  _234
REMARK   98  A    between atoms: _234  and  _235
REMARK   99  A    between atoms: _235  and  _236
REMARK  100  A    between atoms: _241  and  _243
REMARK  101  A    between atoms: _243  and  _244
REMARK  102  A    between atoms: _243  and  _246
REMARK  103  A    between atoms: _246  and  _247
REMARK  104  A    between atoms: _253  and  _255
REMARK  105  A    between atoms: _255  and  _256
REMARK  106  A    between atoms: _255  and  _258
REMARK  107  A    between atoms: _258  and  _259
REMARK  108  A    between atoms: _262  and  _264
REMARK  109  A    between atoms: _264  and  _265
REMARK  110  A    between atoms: _264  and  _267
REMARK  111  A    between atoms: _267  and  _268
REMARK  112  A    between atoms: _273  and  _275
REMARK  113  A    between atoms: _275  and  _276
REMARK  114  A    between atoms: _275  and  _278
REMARK  115  A    between atoms: _278  and  _279
REMARK  116  A    between atoms: _284  and  _286
REMARK  117  A    between atoms: _286  and  _287
REMARK  118  A    between atoms: _289  and  _291
REMARK  119  A    between atoms: _291  and  _292
REMARK  120  A    between atoms: _291  and  _294
REMARK  121  A    between atoms: _294  and  _295
REMARK  122  A    between atoms: _298  and  _300
REMARK  123  A    between atoms: _300  and  _301
REMARK  124  A    between atoms: _300  and  _303
REMARK  125  A    between atoms: _303  and  _304
REMARK  126  A    between atoms: _307  and  _309
REMARK  127  A    between atoms: _309  and  _310
REMARK  128  A    between atoms: _312  and  _314
REMARK  129  A    between atoms: _314  and  _315
REMARK  130  A    between atoms: _314  and  _317
REMARK  131  A    between atoms: _317  and  _318
REMARK  132  A    between atoms: _321  and  _323
REMARK  133  A    between atoms: _323  and  _324
REMARK  134  A    between atoms: _327  and  _329
REMARK  135  A    between atoms: _329  and  _330
REMARK  136  A    between atoms: _329  and  _332
REMARK  137  A    between atoms: _332  and  _333
REMARK  138  A    between atoms: _336  and  _338
REMARK  139  A    between atoms: _338  and  _339
REMARK  140  A    between atoms: _338  and  _341
REMARK  141  A    between atoms: _341  and  _342
REMARK  142  A    between atoms: _342  and  _343
REMARK  143  A    between atoms: _348  and  _350
REMARK  144  A    between atoms: _350  and  _351
REMARK  145  A    between atoms: _350  and  _353
REMARK  146  A    between atoms: _353  and  _354
REMARK  147  A    between atoms: _360  and  _362
REMARK  148  A    between atoms: _362  and  _363
REMARK  149  A    between atoms: _362  and  _365
REMARK  150  A    between atoms: _365  and  _366
REMARK  151  A    between atoms: _376  and  _378
REMARK  152  A    between atoms: _378  and  _379
REMARK  153  A    between atoms: _378  and  _381
REMARK  154  A    between atoms: _381  and  _382
REMARK  155  A    between atoms: _385  and  _387
REMARK  156  A    between atoms: _387  and  _388
REMARK  157  A    between atoms: _391  and  _393
REMARK  158  A    between atoms: _393  and  _394
REMARK  159  A    between atoms: _393  and  _396
REMARK  160  A    between atoms: _396  and  _397
REMARK  161  A    between atoms: _400  and  _402
REMARK  162  A    between atoms: _402  and  _403
REMARK  163  A    between atoms: _402  and  _405
REMARK  164  A    between atoms: _405  and  _406
REMARK  165  A    between atoms: _409  and  _411
REMARK  166  A    between atoms: _411  and  _412
REMARK  167  A    between atoms: _414  and  _416
REMARK  168  A    between atoms: _416  and  _417
REMARK  169  A    between atoms: _416  and  _419
REMARK  170  A    between atoms: _419  and  _420
REMARK  171  A    between atoms: _423  and  _425
REMARK  172  A    between atoms: _425  and  _426
REMARK  173  A    between atoms: _425  and  _428
REMARK  174  A    between atoms: _428  and  _429
REMARK  175  A    between atoms: _432  and  _434
REMARK  176  A    between atoms: _434  and  _435
REMARK  177  A    between atoms: _434  and  _437
REMARK  178  A    between atoms: _437  and  _438
REMARK  179  A    between atoms: _441  and  _443
REMARK  180  A    between atoms: _443  and  _444
REMARK  181  A    between atoms: _443  and  _446
REMARK  182  A    between atoms: _446  and  _447
REMARK  183  A    between atoms: _450  and  _452
REMARK  184  A    between atoms: _452  and  _453
REMARK  185  A    between atoms: _452  and  _455
REMARK  186  A    between atoms: _455  and  _456
REMARK  187  A    between atoms: _459  and  _461
REMARK  188  A    between atoms: _461  and  _462
REMARK  189  A    between atoms: _465  and  _467
REMARK  190  A    between atoms: _467  and  _468
REMARK  191  A    between atoms: _470  and  _472
REMARK  192  A    between atoms: _472  and  _473
REMARK  193  A    between atoms: _475  and  _477
REMARK  194  A    between atoms: _477  and  _478
REMARK  195  A    between atoms: _477  and  _480
REMARK  196  A    between atoms: _480  and  _481
REMARK  197  A    between atoms: _486  and  _487
REMARK  198  A    between atoms: _490  and  _491
REMARK  199  A    between atoms: _496  and  _498
REMARK  200  A    between atoms: _498  and  _499
REMARK  201  A    between atoms: _498  and  _501
REMARK  202  A    between atoms: _501  and  _502
REMARK  203  A    between atoms: _504  and  _506
REMARK  204  A    between atoms: _506  and  _507
REMARK  205  A    between atoms: _506  and  _509
REMARK  206  A    between atoms: _509  and  _510
REMARK  207  A    between atoms: _513  and  _515
REMARK  208  A    between atoms: _515  and  _516
REMARK  209  A    between atoms: _518  and  _520
REMARK  210  A    between atoms: _520  and  _521
REMARK  211  A    between atoms: _520  and  _523
REMARK  212  A    between atoms: _523  and  _524
REMARK  213  A    between atoms: _524  and  _525
REMARK  214  A    between atoms: _530  and  _532
REMARK  215  A    between atoms: _532  and  _533
REMARK  216  A    between atoms: _532  and  _535
REMARK  217  A    between atoms: _535  and  _536
REMARK  218  A    between atoms: _538  and  _540
REMARK  219  A    between atoms: _540  and  _541
REMARK  220  A    between atoms: _540  and  _543
REMARK  221  A    between atoms: _543  and  _544
REMARK  222  A    between atoms: _549  and  _551
REMARK  223  A    between atoms: _551  and  _552
REMARK  224  A    between atoms: _551  and  _554
REMARK  225  A    between atoms: _554  and  _555
REMARK  226  A    between atoms: _557  and  _559
REMARK  227  A    between atoms: _559  and  _560
REMARK  228  A    between atoms: _559  and  _562
REMARK  229  A    between atoms: _562  and  _563
REMARK  230  A    between atoms: _566  and  _568
REMARK  231  A    between atoms: _568  and  _569
REMARK  232  A    between atoms: _568  and  _571
REMARK  233  A    between atoms: _571  and  _572
REMARK  234  A    between atoms: _578  and  _580
REMARK  235  A    between atoms: _580  and  _581
REMARK  236  A    between atoms: _580  and  _583
REMARK  237  A    between atoms: _583  and  _584
REMARK  238  A    between atoms: _586  and  _588
REMARK  239  A    between atoms: _588  and  _589
REMARK  240  A    between atoms: _588  and  _591
REMARK  241  A    between atoms: _591  and  _592
REMARK  242  A    between atoms: _595  and  _597
REMARK  243  A    between atoms: _597  and  _598
REMARK  244  A    between atoms: _597  and  _600
REMARK  245  A    between atoms: _600  and  _601
REMARK  246  A    between atoms: _607  and  _609
REMARK  247  A    between atoms: _609  and  _610
REMARK  248  A    between atoms: _612  and  _614
REMARK  249  A    between atoms: _614  and  _615
REMARK  250  A    between atoms: _614  and  _617
REMARK  251  A    between atoms: _617  and  _618
REMARK                            x       y       z     vdW  Elec       q    Type
REMARK                         _______ _______ _______ _____ _____    ______ ____
ROOT
ATOM      1  O   HOH     1      21.092  -0.729  14.845  0.00  0.00    +0.000 OA
ENDROOT
TORSDOF 0
REMARK  Name = ../refined-set-2016/1bxq/1bxq_pocket.pdb
REMARK  251 active torsions:
REMARK  status: ('A' for Active; 'I' for Inactive)
REMARK    1  A    between atoms: _1  and  _3
REMARK    2  A    between atoms: _3  and  _4
REMARK    3  A    between atoms: _3  and  _6
REMARK    4  A    between atoms: _6  and  _7
REMARK    5  A    between atoms: _10  and  _12
REMARK    6  A    between atoms: _12  and  _13
REMARK    7  A    between atoms: _16  and  _18
REMARK    8  A    between atoms: _18  and  _19
REMARK    9  A    between atoms: _18  and  _21
REMARK   10  A    between atoms: _21  and  _22
REMARK   11  A    between atoms: _27  and  _29
REMARK   12  A    between atoms: _29  and  _30
REMARK   13  A    between atoms: _29  and  _32
REMARK   14  A    between atoms: _32  and  _33
REMARK   15  A    between atoms: _36  and  _38
REMARK   16  A    between atoms: _38  and  _39
REMARK   17  A    between atoms: _38  and  _41
REMARK   18  A    between atoms: _41  and  _42
REMARK   19  A    between atoms: _42  and  _43
REMARK   20  A    between atoms: _46  and  _48
REMARK   21  A    between atoms: _48  and  _49
REMARK   22  A    between atoms: _48  and  _51
REMARK   23  A    between atoms: _51  and  _52
REMARK   24  A    between atoms: _52  and  _53
REMARK   25  A    between atoms: _56  and  _58
REMARK   26  A    between atoms: _58  and  _59
REMARK   27  A    between atoms: _58  and  _61
REMARK   28  A    between atoms: _61  and  _62
REMARK   29  A    between atoms: _67  and  _68
REMARK   30  A    between atoms: _70  and  _72
REMARK   31  A    between atoms: _72  and  _73
REMARK   32  A    between atoms: _72  and  _75
REMARK   33  A    between atoms: _75  and  _76
REMARK   34  A    between atoms: _81  and  _83
REMARK   35  A    between atoms: _83  and  _84
REMARK   36  A    between atoms: _83  and  _86
REMARK   37  A    between atoms: _86  and  _87
REMARK   38  A    between atoms: _93  and  _95
REMARK   39  A    between atoms: _95  and  _96
REMARK   40  A    between atoms: _95  and  _98
REMARK   41  A    between atoms: _98  and  _99
REMARK   42  A    between atoms: _102  and  _104
REMARK   43  A    between atoms: _104  and  _105
REMARK   44  A    between atoms: _104  and  _107
REMARK   45  A    between atoms: _107  and  _108
REMARK   46  A    between atoms: _111  and  _113
REMARK   47  A    between atoms: _113  and  _114
REMARK   48  A    between atoms: _116  and  _118
REMARK   49  A    between atoms: _118  and  _119
REMARK   50  A    between atoms: _118  and  _121
REMARK   51  A    between atoms: _121  and  _122
REMARK   52  A    between atoms: _124  and  _126
REMARK   53  A    between atoms: _126  and  _127
REMARK   54  A    between atoms: _130  and  _132
REMARK   55  A    between atoms: _132  and  _133
REMARK   56  A    between atoms: _132  and  _135
REMARK   57  A    between atoms: _135  and  _136
REMARK   58  A    between atoms: _139  and  _141
REMARK   59  A    between atoms: _141  and  _142
REMARK   60  A    between atoms: _141  and  _144
REMARK   61  A    between atoms: _144  and  _145
REMARK   62  A    between atoms: _155  and  _157
REMARK   63  A    between atoms: _157  and  _158
REMARK   64  A    between atoms: _157  and  _160
REMARK   65  A    between atoms: _160  and  _161
REMARK   66  A    between atoms: _164  and  _166
REMARK   67  A    between atoms: _166  and  _167
REMARK   68  A    between atoms: _166  and  _169
REMARK   69  A    between atoms: _169  and  _170
REMARK   70  A    between atoms: _172  and  _174
REMARK   71  A    between atoms: _174  and  _175
REMARK   72  A    between atoms: _174  and  _177
REMARK   73  A    between atoms: _177  and  _178
REMARK   74  A    between atoms: _183  and  _184
REMARK   75  A    between atoms: _186  and  _188
REMARK   76  A    between atoms: _188  and  _189
REMARK   77  A    between atoms: _191  and  _193
REMARK   78  A    between atoms: _193  and  _194
REMARK   79  A    between atoms: _193  and  _196
REMARK   80  A    between atoms: _196  and  _197
REMARK   81  A    between atoms: _200  and  _202
REMARK   82  A    between atoms: _202  and  _203
REMARK   83  A    between atoms: _205  and  _207
REMARK   84  A    between atoms: _207  and  _208
REMARK   85  A    between atoms: _207  and  _210
REMARK   86  A    between atoms: _210  and  _211
REMARK   87  A    between atoms: _213  and  _215
REMARK   88  A    between atoms: _215  and  _216
REMARK   89  A    between atoms: _215  and  _218
REMARK   90  A    between atoms: _218  and  _219
REMARK   91  A    between atoms: _221  and  _223
REMARK   92  A    between atoms: _223  and  _224
REMARK   93  A    between atoms: _223  and  _226
REMARK   94  A    between atoms: _226  and  _227
REMARK   95  A    between atoms: _229  and  _231
REMARK   96  A    between atoms: _231  and  _232
REMARK   97  A    between atoms: _231  and  _234
REMARK   98  A    between atoms: _234  and  _235
REMARK   99  A    between atoms: _235  and  _236
REMARK  100  A    between atoms: _241  and  _243
REMARK  101  A    between atoms: _243  and  _244
REMARK  102  A    between atoms: _243  and  _246
REMARK  103  A    between atoms: _246  and  _247
REMARK  104  A    between atoms: _253  and  _255
REMARK  105  A    between atoms: _255  and  _256
REMARK  106  A    between atoms: _255  and  _258
REMARK  107  A    between atoms: _258  and  _259
REMARK  108  A    between atoms: _262  and  _264
REMARK  109  A    between atoms: _264  and  _265
REMARK  110  A    between atoms: _264  and  _267
REMARK  111  A    between atoms: _267  and  _268
REMARK  112  A    between atoms: _273  and  _275
REMARK  113  A    between atoms: _275  and  _276
REMARK  114  A    between atoms: _275  and  _278
REMARK  115  A    between atoms: _278  and  _279
REMARK  116  A    between atoms: _284  and  _286
REMARK  117  A    between atoms: _286  and  _287
REMARK  118  A    between atoms: _289  and  _291
REMARK  119  A    between atoms: _291  and  _292
REMARK  120  A    between atoms: _291  and  _294
REMARK  121  A    between atoms: _294  and  _295
REMARK  122  A    between atoms: _298  and  _300
REMARK  123  A    between atoms: _300  and  _301
REMARK  124  A    between atoms: _300  and  _303
REMARK  125  A    between atoms: _303  and  _304
REMARK  126  A    between atoms: _307  and  _309
REMARK  127  A    between atoms: _309  and  _310
REMARK  128  A    between atoms: _312  and  _314
REMARK  129  A    between atoms: _314  and  _315
REMARK  130  A    between atoms: _314  and  _317
REMARK  131  A    between atoms: _317  and  _318
REMARK  132  A    between atoms: _321  and  _323
REMARK  133  A    between atoms: _323  and  _324
REMARK  134  A    between atoms: _327  and  _329
REMARK  135  A    between atoms: _329  and  _330
REMARK  136  A    between atoms: _329  and  _332
REMARK  137  A    between atoms: _332  and  _333
REMARK  138  A    between atoms: _336  and  _338
REMARK  139  A    between atoms: _338  and  _339
REMARK  140  A    between atoms: _338  and  _341
REMARK  141  A    between atoms: _341  and  _342
REMARK  142  A    between atoms: _342  and  _343
REMARK  143  A    between atoms: _348  and  _350
REMARK  144  A    between atoms: _350  and  _351
REMARK  145  A    between atoms: _350  and  _353
REMARK  146  A    between atoms: _353  and  _354
REMARK  147  A    between atoms: _360  and  _362
REMARK  148  A    between atoms: _362  and  _363
REMARK  149  A    between atoms: _362  and  _365
REMARK  150  A    between atoms: _365  and  _366
REMARK  151  A    between atoms: _376  and  _378
REMARK  152  A    between atoms: _378  and  _379
REMARK  153  A    between atoms: _378  and  _381
REMARK  154  A    between atoms: _381  and  _382
REMARK  155  A    between atoms: _385  and  _387
REMARK  156  A    between atoms: _387  and  _388
REMARK  157  A    between atoms: _391  and  _393
REMARK  158  A    between atoms: _393  and  _394
REMARK  159  A    between atoms: _393  and  _396
REMARK  160  A    between atoms: _396  and  _397
REMARK  161  A    between atoms: _400  and  _402
REMARK  162  A    between atoms: _402  and  _403
REMARK  163  A    between atoms: _402  and  _405
REMARK  164  A    between atoms: _405  and  _406
REMARK  165  A    between atoms: _409  and  _411
REMARK  166  A    between atoms: _411  and  _412
REMARK  167  A    between atoms: _414  and  _416
REMARK  168  A    between atoms: _416  and  _417
REMARK  169  A    between atoms: _416  and  _419
REMARK  170  A    between atoms: _419  and  _420
REMARK  171  A    between atoms: _423  and  _425
REMARK  172  A    between atoms: _425  and  _426
REMARK  173  A    between atoms: _425  and  _428
REMARK  174  A    between atoms: _428  and  _429
REMARK  175  A    between atoms: _432  and  _434
REMARK  176  A    between atoms: _434  and  _435
REMARK  177  A    between atoms: _434  and  _437
REMARK  178  A    between atoms: _437  and  _438
REMARK  179  A    between atoms: _441  and  _443
REMARK  180  A    between atoms: _443  and  _444
REMARK  181  A    between atoms: _443  and  _446
REMARK  182  A    between atoms: _446  and  _447
REMARK  183  A    between atoms: _450  and  _452
REMARK  184  A    between atoms: _452  and  _453
REMARK  185  A    between atoms: _452  and  _455
REMARK  186  A    between atoms: _455  and  _456
REMARK  187  A    between atoms: _459  and  _461
REMARK  188  A    between atoms: _461  and  _462
REMARK  189  A    between atoms: _465  and  _467
REMARK  190  A    between atoms: _467  and  _468
REMARK  191  A    between atoms: _470  and  _472
REMARK  192  A    between atoms: _472  and  _473
REMARK  193  A    between atoms: _475  and  _477
REMARK  194  A    between atoms: _477  and  _478
REMARK  195  A    between atoms: _477  and  _480
REMARK  196  A    between atoms: _480  and  _481
REMARK  197  A    between atoms: _486  and  _487
REMARK  198  A    between atoms: _490  and  _491
REMARK  199  A    between atoms: _496  and  _498
REMARK  200  A    between atoms: _498  and  _499
REMARK  201  A    between atoms: _498  and  _501
REMARK  202  A    between atoms: _501  and  _502
REMARK  203  A    between atoms: _504  and  _506
REMARK  204  A    between atoms: _506  and  _507
REMARK  205  A    between atoms: _506  and  _509
REMARK  206  A    between atoms: _509  and  _510
REMARK  207  A    between atoms: _513  and  _515
REMARK  208  A    between atoms: _515  and  _516
REMARK  209  A    between atoms: _518  and  _520
REMARK  210  A    between atoms: _520  and  _521
REMARK  211  A    between atoms: _520  and  _523
REMARK  212  A    between atoms: _523  and  _524
REMARK  213  A    between atoms: _524  and  _525
REMARK  214  A    between atoms: _530  and  _532
REMARK  215  A    between atoms: _532  and  _533
REMARK  216  A    between atoms: _532  and  _535
REMARK  217  A    between atoms: _535  and  _536
REMARK  218  A    between atoms: _538  and  _540
REMARK  219  A    between atoms: _540  and  _541
REMARK  220  A    between atoms: _540  and  _543
REMARK  221  A    between atoms: _543  and  _544
REMARK  222  A    between atoms: _549  and  _551
REMARK  223  A    between atoms: _551  and  _552
REMARK  224  A    between atoms: _551  and  _554
REMARK  225  A    between atoms: _554  and  _555
REMARK  226  A    between atoms: _557  and  _559
REMARK  227  A    between atoms: _559  and  _560
REMARK  228  A    between atoms: _559  and  _562
REMARK  229  A    between atoms: _562  and  _563
REMARK  230  A    between atoms: _566  and  _568
REMARK  231  A    between atoms: _568  and  _569
REMARK  232  A    between atoms: _568  and  _571
REMARK  233  A    between atoms: _571  and  _572
REMARK  234  A    between atoms: _578  and  _580
REMARK  235  A    between atoms: _580  and  _581
REMARK  236  A    between atoms: _580  and  _583
REMARK  237  A    between atoms: _583  and  _584
REMARK  238  A    between atoms: _586  and  _588
REMARK  239  A    between atoms: _588  and  _589
REMARK  240  A    between atoms: _588  and  _591
REMARK  241  A    between atoms: _591  and  _592
REMARK  242  A    between atoms: _595  and  _597
REMARK  243  A    between atoms: _597  and  _598
REMARK  244  A    between atoms: _597  and  _600
REMARK  245  A    between atoms: _600  and  _601
REMARK  246  A    between atoms: _607  and  _609
REMARK  247  A    between atoms: _609  and  _610
REMARK  248  A    between atoms: _612  and  _614
REMARK  249  A    between atoms: _614  and  _615
REMARK  250  A    between atoms: _614  and  _617
REMARK  251  A    between atoms: _617  and  _618
REMARK                            x       y       z     vdW  Elec       q    Type
REMARK                         _______ _______ _______ _____ _____    ______ ____
ROOT
ATOM      1  O   HOH     1      13.883   1.335  24.906  0.00  0.00    +0.000 OA
ENDROOT
TORSDOF 0
REMARK  Name = ../refined-set-2016/1bxq/1bxq_pocket.pdb
REMARK  251 active torsions:
REMARK  status: ('A' for Active; 'I' for Inactive)
REMARK    1  A    between atoms: _1  and  _3
REMARK    2  A    between atoms: _3  and  _4
REMARK    3  A    between atoms: _3  and  _6
REMARK    4  A    between atoms: _6  and  _7
REMARK    5  A    between atoms: _10  and  _12
REMARK    6  A    between atoms: _12  and  _13
REMARK    7  A    between atoms: _16  and  _18
REMARK    8  A    between atoms: _18  and  _19
REMARK    9  A    between atoms: _18  and  _21
REMARK   10  A    between atoms: _21  and  _22
REMARK   11  A    between atoms: _27  and  _29
REMARK   12  A    between atoms: _29  and  _30
REMARK   13  A    between atoms: _29  and  _32
REMARK   14  A    between atoms: _32  and  _33
REMARK   15  A    between atoms: _36  and  _38
REMARK   16  A    between atoms: _38  and  _39
REMARK   17  A    between atoms: _38  and  _41
REMARK   18  A    between atoms: _41  and  _42
REMARK   19  A    between atoms: _42  and  _43
REMARK   20  A    between atoms: _46  and  _48
REMARK   21  A    between atoms: _48  and  _49
REMARK   22  A    between atoms: _48  and  _51
REMARK   23  A    between atoms: _51  and  _52
REMARK   24  A    between atoms: _52  and  _53
REMARK   25  A    between atoms: _56  and  _58
REMARK   26  A    between atoms: _58  and  _59
REMARK   27  A    between atoms: _58  and  _61
REMARK   28  A    between atoms: _61  and  _62
REMARK   29  A    between atoms: _67  and  _68
REMARK   30  A    between atoms: _70  and  _72
REMARK   31  A    between atoms: _72  and  _73
REMARK   32  A    between atoms: _72  and  _75
REMARK   33  A    between atoms: _75  and  _76
REMARK   34  A    between atoms: _81  and  _83
REMARK   35  A    between atoms: _83  and  _84
REMARK   36  A    between atoms: _83  and  _86
REMARK   37  A    between atoms: _86  and  _87
REMARK   38  A    between atoms: _93  and  _95
REMARK   39  A    between atoms: _95  and  _96
REMARK   40  A    between atoms: _95  and  _98
REMARK   41  A    between atoms: _98  and  _99
REMARK   42  A    between atoms: _102  and  _104
REMARK   43  A    between atoms: _104  and  _105
REMARK   44  A    between atoms: _104  and  _107
REMARK   45  A    between atoms: _107  and  _108
REMARK   46  A    between atoms: _111  and  _113
REMARK   47  A    between atoms: _113  and  _114
REMARK   48  A    between atoms: _116  and  _118
REMARK   49  A    between atoms: _118  and  _119
REMARK   50  A    between atoms: _118  and  _121
REMARK   51  A    between atoms: _121  and  _122
REMARK   52  A    between atoms: _124  and  _126
REMARK   53  A    between atoms: _126  and  _127
REMARK   54  A    between atoms: _130  and  _132
REMARK   55  A    between atoms: _132  and  _133
REMARK   56  A    between atoms: _132  and  _135
REMARK   57  A    between atoms: _135  and  _136
REMARK   58  A    between atoms: _139  and  _141
REMARK   59  A    between atoms: _141  and  _142
REMARK   60  A    between atoms: _141  and  _144
REMARK   61  A    between atoms: _144  and  _145
REMARK   62  A    between atoms: _155  and  _157
REMARK   63  A    between atoms: _157  and  _158
REMARK   64  A    between atoms: _157  and  _160
REMARK   65  A    between atoms: _160  and  _161
REMARK   66  A    between atoms: _164  and  _166
REMARK   67  A    between atoms: _166  and  _167
REMARK   68  A    between atoms: _166  and  _169
REMARK   69  A    between atoms: _169  and  _170
REMARK   70  A    between atoms: _172  and  _174
REMARK   71  A    between atoms: _174  and  _175
REMARK   72  A    between atoms: _174  and  _177
REMARK   73  A    between atoms: _177  and  _178
REMARK   74  A    between atoms: _183  and  _184
REMARK   75  A    between atoms: _186  and  _188
REMARK   76  A    between atoms: _188  and  _189
REMARK   77  A    between atoms: _191  and  _193
REMARK   78  A    between atoms: _193  and  _194
REMARK   79  A    between atoms: _193  and  _196
REMARK   80  A    between atoms: _196  and  _197
REMARK   81  A    between atoms: _200  and  _202
REMARK   82  A    between atoms: _202  and  _203
REMARK   83  A    between atoms: _205  and  _207
REMARK   84  A    between atoms: _207  and  _208
REMARK   85  A    between atoms: _207  and  _210
REMARK   86  A    between atoms: _210  and  _211
REMARK   87  A    between atoms: _213  and  _215
REMARK   88  A    between atoms: _215  and  _216
REMARK   89  A    between atoms: _215  and  _218
REMARK   90  A    between atoms: _218  and  _219
REMARK   91  A    between atoms: _221  and  _223
REMARK   92  A    between atoms: _223  and  _224
REMARK   93  A    between atoms: _223  and  _226
REMARK   94  A    between atoms: _226  and  _227
REMARK   95  A    between atoms: _229  and  _231
REMARK   96  A    between atoms: _231  and  _232
REMARK   97  A    between atoms: _231  and  _234
REMARK   98  A    between atoms: _234  and  _235
REMARK   99  A    between atoms: _235  and  _236
REMARK  100  A    between atoms: _241  and  _243
REMARK  101  A    between atoms: _243  and  _244
REMARK  102  A    between atoms: _243  and  _246
REMARK  103  A    between atoms: _246  and  _247
REMARK  104  A    between atoms: _253  and  _255
REMARK  105  A    between atoms: _255  and  _256
REMARK  106  A    between atoms: _255  and  _258
REMARK  107  A    between atoms: _258  and  _259
REMARK  108  A    between atoms: _262  and  _264
REMARK  109  A    between atoms: _264  and  _265
REMARK  110  A    between atoms: _264  and  _267
REMARK  111  A    between atoms: _267  and  _268
REMARK  112  A    between atoms: _273  and  _275
REMARK  113  A    between atoms: _275  and  _276
REMARK  114  A    between atoms: _275  and  _278
REMARK  115  A    between atoms: _278  and  _279
REMARK  116  A    between atoms: _284  and  _286
REMARK  117  A    between atoms: _286  and  _287
REMARK  118  A    between atoms: _289  and  _291
REMARK  119  A    between atoms: _291  and  _292
REMARK  120  A    between atoms: _291  and  _294
REMARK  121  A    between atoms: _294  and  _295
REMARK  122  A    between atoms: _298  and  _300
REMARK  123  A    between atoms: _300  and  _301
REMARK  124  A    between atoms: _300  and  _303
REMARK  125  A    between atoms: _303  and  _304
REMARK  126  A    between atoms: _307  and  _309
REMARK  127  A    between atoms: _309  and  _310
REMARK  128  A    between atoms: _312  and  _314
REMARK  129  A    between atoms: _314  and  _315
REMARK  130  A    between atoms: _314  and  _317
REMARK  131  A    between atoms: _317  and  _318
REMARK  132  A    between atoms: _321  and  _323
REMARK  133  A    between atoms: _323  and  _324
REMARK  134  A    between atoms: _327  and  _329
REMARK  135  A    between atoms: _329  and  _330
REMARK  136  A    between atoms: _329  and  _332
REMARK  137  A    between atoms: _332  and  _333
REMARK  138  A    between atoms: _336  and  _338
REMARK  139  A    between atoms: _338  and  _339
REMARK  140  A    between atoms: _338  and  _341
REMARK  141  A    between atoms: _341  and  _342
REMARK  142  A    between atoms: _342  and  _343
REMARK  143  A    between atoms: _348  and  _350
REMARK  144  A    between atoms: _350  and  _351
REMARK  145  A    between atoms: _350  and  _353
REMARK  146  A    between atoms: _353  and  _354
REMARK  147  A    between atoms: _360  and  _362
REMARK  148  A    between atoms: _362  and  _363
REMARK  149  A    between atoms: _362  and  _365
REMARK  150  A    between atoms: _365  and  _366
REMARK  151  A    between atoms: _376  and  _378
REMARK  152  A    between atoms: _378  and  _379
REMARK  153  A    between atoms: _378  and  _381
REMARK  154  A    between atoms: _381  and  _382
REMARK  155  A    between atoms: _385  and  _387
REMARK  156  A    between atoms: _387  and  _388
REMARK  157  A    between atoms: _391  and  _393
REMARK  158  A    between atoms: _393  and  _394
REMARK  159  A    between atoms: _393  and  _396
REMARK  160  A    between atoms: _396  and  _397
REMARK  161  A    between atoms: _400  and  _402
REMARK  162  A    between atoms: _402  and  _403
REMARK  163  A    between atoms: _402  and  _405
REMARK  164  A    between atoms: _405  and  _406
REMARK  165  A    between atoms: _409  and  _411
REMARK  166  A    between atoms: _411  and  _412
REMARK  167  A    between atoms: _414  and  _416
REMARK  168  A    between atoms: _416  and  _417
REMARK  169  A    between atoms: _416  and  _419
REMARK  170  A    between atoms: _419  and  _420
REMARK  171  A    between atoms: _423  and  _425
REMARK  172  A    between atoms: _425  and  _426
REMARK  173  A    between atoms: _425  and  _428
REMARK  174  A    between atoms: _428  and  _429
REMARK  175  A    between atoms: _432  and  _434
REMARK  176  A    between atoms: _434  and  _435
REMARK  177  A    between atoms: _434  and  _437
REMARK  178  A    between atoms: _437  and  _438
REMARK  179  A    between atoms: _441  and  _443
REMARK  180  A    between atoms: _443  and  _444
REMARK  181  A    between atoms: _443  and  _446
REMARK  182  A    between atoms: _446  and  _447
REMARK  183  A    between atoms: _450  and  _452
REMARK  184  A    between atoms: _452  and  _453
REMARK  185  A    between atoms: _452  and  _455
REMARK  186  A    between atoms: _455  and  _456
REMARK  187  A    between atoms: _459  and  _461
REMARK  188  A    between atoms: _461  and  _462
REMARK  189  A    between atoms: _465  and  _467
REMARK  190  A    between atoms: _467  and  _468
REMARK  191  A    between atoms: _470  and  _472
REMARK  192  A    between atoms: _472  and  _473
REMARK  193  A    between atoms: _475  and  _477
REMARK  194  A    between atoms: _477  and  _478
REMARK  195  A    between atoms: _477  and  _480
REMARK  196  A    between atoms: _480  and  _481
REMARK  197  A    between atoms: _486  and  _487
REMARK  198  A    between atoms: _490  and  _491
REMARK  199  A    between atoms: _496  and  _498
REMARK  200  A    between atoms: _498  and  _499
REMARK  201  A    between atoms: _498  and  _501
REMARK  202  A    between atoms: _501  and  _502
REMARK  203  A    between atoms: _504  and  _506
REMARK  204  A    between atoms: _506  and  _507
REMARK  205  A    between atoms: _506  and  _509
REMARK  206  A    between atoms: _509  and  _510
REMARK  207  A    between atoms: _513  and  _515
REMARK  208  A    between atoms: _515  and  _516
REMARK  209  A    between atoms: _518  and  _520
REMARK  210  A    between atoms: _520  and  _521
REMARK  211  A    between atoms: _520  and  _523
REMARK  212  A    between atoms: _523  and  _524
REMARK  213  A    between atoms: _524  and  _525
REMARK  214  A    between atoms: _530  and  _532
REMARK  215  A    between atoms: _532  and  _533
REMARK  216  A    between atoms: _532  and  _535
REMARK  217  A    between atoms: _535  and  _536
REMARK  218  A    between atoms: _538  and  _540
REMARK  219  A    between atoms: _540  and  _541
REMARK  220  A    between atoms: _540  and  _543
REMARK  221  A    between atoms: _543  and  _544
REMARK  222  A    between atoms: _549  and  _551
REMARK  223  A    between atoms: _551  and  _552
REMARK  224  A    between atoms: _551  and  _554
REMARK  225  A    between atoms: _554  and  _555
REMARK  226  A    between atoms: _557  and  _559
REMARK  227  A    between atoms: _559  and  _560
REMARK  228  A    between atoms: _559  and  _562
REMARK  229  A    between atoms: _562  and  _563
REMARK  230  A    between atoms: _566  and  _568
REMARK  231  A    between atoms: _568  and  _569
REMARK  232  A    between atoms: _568  and  _571
REMARK  233  A    between atoms: _571  and  _572
REMARK  234  A    between atoms: _578  and  _580
REMARK  235  A    between atoms: _580  and  _581
REMARK  236  A    between atoms: _580  and  _583
REMARK  237  A    between atoms: _583  and  _584
REMARK  238  A    between atoms: _586  and  _588
REMARK  239  A    between atoms: _588  and  _589
REMARK  240  A    between atoms: _588  and  _591
REMARK  241  A    between atoms: _591  and  _592
REMARK  242  A    between atoms: _595  and  _597
REMARK  243  A    between atoms: _597  and  _598
REMARK  244  A    between atoms: _597  and  _600
REMARK  245  A    between atoms: _600  and  _601
REMARK  246  A    between atoms: _607  and  _609
REMARK  247  A    between atoms: _609  and  _610
REMARK  248  A    between atoms: _612  and  _614
REMARK  249  A    between atoms: _614  and  _615
REMARK  250  A    between atoms: _614  and  _617
REMARK  251  A    between atoms: _617  and  _618
REMARK                            x       y       z     vdW  Elec       q    Type
REMARK                         _______ _______ _______ _____ _____    ______ ____
ROOT
ATOM      1  O   HOH     1      16.809  -1.123  14.396  0.00  0.00    +0.000 OA
ENDROOT
TORSDOF 0
REMARK  Name = ../refined-set-2016/1bxq/1bxq_pocket.pdb
REMARK  251 active torsions:
REMARK  status: ('A' for Active; 'I' for Inactive)
REMARK    1  A    between atoms: _1  and  _3
REMARK    2  A    between atoms: _3  and  _4
REMARK    3  A    between atoms: _3  and  _6
REMARK    4  A    between atoms: _6  and  _7
REMARK    5  A    between atoms: _10  and  _12
REMARK    6  A    between atoms: _12  and  _13
REMARK    7  A    between atoms: _16  and  _18
REMARK    8  A    between atoms: _18  and  _19
REMARK    9  A    between atoms: _18  and  _21
REMARK   10  A    between atoms: _21  and  _22
REMARK   11  A    between atoms: _27  and  _29
REMARK   12  A    between atoms: _29  and  _30
REMARK   13  A    between atoms: _29  and  _32
REMARK   14  A    between atoms: _32  and  _33
REMARK   15  A    between atoms: _36  and  _38
REMARK   16  A    between atoms: _38  and  _39
REMARK   17  A    between atoms: _38  and  _41
REMARK   18  A    between atoms: _41  and  _42
REMARK   19  A    between atoms: _42  and  _43
REMARK   20  A    between atoms: _46  and  _48
REMARK   21  A    between atoms: _48  and  _49
REMARK   22  A    between atoms: _48  and  _51
REMARK   23  A    between atoms: _51  and  _52
REMARK   24  A    between atoms: _52  and  _53
REMARK   25  A    between atoms: _56  and  _58
REMARK   26  A    between atoms: _58  and  _59
REMARK   27  A    between atoms: _58  and  _61
REMARK   28  A    between atoms: _61  and  _62
REMARK   29  A    between atoms: _67  and  _68
REMARK   30  A    between atoms: _70  and  _72
REMARK   31  A    between atoms: _72  and  _73
REMARK   32  A    between atoms: _72  and  _75
REMARK   33  A    between atoms: _75  and  _76
REMARK   34  A    between atoms: _81  and  _83
REMARK   35  A    between atoms: _83  and  _84
REMARK   36  A    between atoms: _83  and  _86
REMARK   37  A    between atoms: _86  and  _87
REMARK   38  A    between atoms: _93  and  _95
REMARK   39  A    between atoms: _95  and  _96
REMARK   40  A    between atoms: _95  and  _98
REMARK   41  A    between atoms: _98  and  _99
REMARK   42  A    between atoms: _102  and  _104
REMARK   43  A    between atoms: _104  and  _105
REMARK   44  A    between atoms: _104  and  _107
REMARK   45  A    between atoms: _107  and  _108
REMARK   46  A    between atoms: _111  and  _113
REMARK   47  A    between atoms: _113  and  _114
REMARK   48  A    between atoms: _116  and  _118
REMARK   49  A    between atoms: _118  and  _119
REMARK   50  A    between atoms: _118  and  _121
REMARK   51  A    between atoms: _121  and  _122
REMARK   52  A    between atoms: _124  and  _126
REMARK   53  A    between atoms: _126  and  _127
REMARK   54  A    between atoms: _130  and  _132
REMARK   55  A    between atoms: _132  and  _133
REMARK   56  A    between atoms: _132  and  _135
REMARK   57  A    between atoms: _135  and  _136
REMARK   58  A    between atoms: _139  and  _141
REMARK   59  A    between atoms: _141  and  _142
REMARK   60  A    between atoms: _141  and  _144
REMARK   61  A    between atoms: _144  and  _145
REMARK   62  A    between atoms: _155  and  _157
REMARK   63  A    between atoms: _157  and  _158
REMARK   64  A    between atoms: _157  and  _160
REMARK   65  A    between atoms: _160  and  _161
REMARK   66  A    between atoms: _164  and  _166
REMARK   67  A    between atoms: _166  and  _167
REMARK   68  A    between atoms: _166  and  _169
REMARK   69  A    between atoms: _169  and  _170
REMARK   70  A    between atoms: _172  and  _174
REMARK   71  A    between atoms: _174  and  _175
REMARK   72  A    between atoms: _174  and  _177
REMARK   73  A    between atoms: _177  and  _178
REMARK   74  A    between atoms: _183  and  _184
REMARK   75  A    between atoms: _186  and  _188
REMARK   76  A    between atoms: _188  and  _189
REMARK   77  A    between atoms: _191  and  _193
REMARK   78  A    between atoms: _193  and  _194
REMARK   79  A    between atoms: _193  and  _196
REMARK   80  A    between atoms: _196  and  _197
REMARK   81  A    between atoms: _200  and  _202
REMARK   82  A    between atoms: _202  and  _203
REMARK   83  A    between atoms: _205  and  _207
REMARK   84  A    between atoms: _207  and  _208
REMARK   85  A    between atoms: _207  and  _210
REMARK   86  A    between atoms: _210  and  _211
REMARK   87  A    between atoms: _213  and  _215
REMARK   88  A    between atoms: _215  and  _216
REMARK   89  A    between atoms: _215  and  _218
REMARK   90  A    between atoms: _218  and  _219
REMARK   91  A    between atoms: _221  and  _223
REMARK   92  A    between atoms: _223  and  _224
REMARK   93  A    between atoms: _223  and  _226
REMARK   94  A    between atoms: _226  and  _227
REMARK   95  A    between atoms: _229  and  _231
REMARK   96  A    between atoms: _231  and  _232
REMARK   97  A    between atoms: _231  and  _234
REMARK   98  A    between atoms: _234  and  _235
REMARK   99  A    between atoms: _235  and  _236
REMARK  100  A    between atoms: _241  and  _243
REMARK  101  A    between atoms: _243  and  _244
REMARK  102  A    between atoms: _243  and  _246
REMARK  103  A    between atoms: _246  and  _247
REMARK  104  A    between atoms: _253  and  _255
REMARK  105  A    between atoms: _255  and  _256
REMARK  106  A    between atoms: _255  and  _258
REMARK  107  A    between atoms: _258  and  _259
REMARK  108  A    between atoms: _262  and  _264
REMARK  109  A    between atoms: _264  and  _265
REMARK  110  A    between atoms: _264  and  _267
REMARK  111  A    between atoms: _267  and  _268
REMARK  112  A    between atoms: _273  and  _275
REMARK  113  A    between atoms: _275  and  _276
REMARK  114  A    between atoms: _275  and  _278
REMARK  115  A    between atoms: _278  and  _279
REMARK  116  A    between atoms: _284  and  _286
REMARK  117  A    between atoms: _286  and  _287
REMARK  118  A    between atoms: _289  and  _291
REMARK  119  A    between atoms: _291  and  _292
REMARK  120  A    between atoms: _291  and  _294
REMARK  121  A    between atoms: _294  and  _295
REMARK  122  A    between atoms: _298  and  _300
REMARK  123  A    between atoms: _300  and  _301
REMARK  124  A    between atoms: _300  and  _303
REMARK  125  A    between atoms: _303  and  _304
REMARK  126  A    between atoms: _307  and  _309
REMARK  127  A    between atoms: _309  and  _310
REMARK  128  A    between atoms: _312  and  _314
REMARK  129  A    between atoms: _314  and  _315
REMARK  130  A    between atoms: _314  and  _317
REMARK  131  A    between atoms: _317  and  _318
REMARK  132  A    between atoms: _321  and  _323
REMARK  133  A    between atoms: _323  and  _324
REMARK  134  A    between atoms: _327  and  _329
REMARK  135  A    between atoms: _329  and  _330
REMARK  136  A    between atoms: _329  and  _332
REMARK  137  A    between atoms: _332  and  _333
REMARK  138  A    between atoms: _336  and  _338
REMARK  139  A    between atoms: _338  and  _339
REMARK  140  A    between atoms: _338  and  _341
REMARK  141  A    between atoms: _341  and  _342
REMARK  142  A    between atoms: _342  and  _343
REMARK  143  A    between atoms: _348  and  _350
REMARK  144  A    between atoms: _350  and  _351
REMARK  145  A    between atoms: _350  and  _353
REMARK  146  A    between atoms: _353  and  _354
REMARK  147  A    between atoms: _360  and  _362
REMARK  148  A    between atoms: _362  and  _363
REMARK  149  A    between atoms: _362  and  _365
REMARK  150  A    between atoms: _365  and  _366
REMARK  151  A    between atoms: _376  and  _378
REMARK  152  A    between atoms: _378  and  _379
REMARK  153  A    between atoms: _378  and  _381
REMARK  154  A    between atoms: _381  and  _382
REMARK  155  A    between atoms: _385  and  _387
REMARK  156  A    between atoms: _387  and  _388
REMARK  157  A    between atoms: _391  and  _393
REMARK  158  A    between atoms: _393  and  _394
REMARK  159  A    between atoms: _393  and  _396
REMARK  160  A    between atoms: _396  and  _397
REMARK  161  A    between atoms: _400  and  _402
REMARK  162  A    between atoms: _402  and  _403
REMARK  163  A    between atoms: _402  and  _405
REMARK  164  A    between atoms: _405  and  _406
REMARK  165  A    between atoms: _409  and  _411
REMARK  166  A    between atoms: _411  and  _412
REMARK  167  A    between atoms: _414  and  _416
REMARK  168  A    between atoms: _416  and  _417
REMARK  169  A    between atoms: _416  and  _419
REMARK  170  A    between atoms: _419  and  _420
REMARK  171  A    between atoms: _423  and  _425
REMARK  172  A    between atoms: _425  and  _426
REMARK  173  A    between atoms: _425  and  _428
REMARK  174  A    between atoms: _428  and  _429
REMARK  175  A    between atoms: _432  and  _434
REMARK  176  A    between atoms: _434  and  _435
REMARK  177  A    between atoms: _434  and  _437
REMARK  178  A    between atoms: _437  and  _438
REMARK  179  A    between atoms: _441  and  _443
REMARK  180  A    between atoms: _443  and  _444
REMARK  181  A    between atoms: _443  and  _446
REMARK  182  A    between atoms: _446  and  _447
REMARK  183  A    between atoms: _450  and  _452
REMARK  184  A    between atoms: _452  and  _453
REMARK  185  A    between atoms: _452  and  _455
REMARK  186  A    between atoms: _455  and  _456
REMARK  187  A    between atoms: _459  and  _461
REMARK  188  A    between atoms: _461  and  _462
REMARK  189  A    between atoms: _465  and  _467
REMARK  190  A    between atoms: _467  and  _468
REMARK  191  A    between atoms: _470  and  _472
REMARK  192  A    between atoms: _472  and  _473
REMARK  193  A    between atoms: _475  and  _477
REMARK  194  A    between atoms: _477  and  _478
REMARK  195  A    between atoms: _477  and  _480
REMARK  196  A    between atoms: _480  and  _481
REMARK  197  A    between atoms: _486  and  _487
REMARK  198  A    between atoms: _490  and  _491
REMARK  199  A    between atoms: _496  and  _498
REMARK  200  A    between atoms: _498  and  _499
REMARK  201  A    between atoms: _498  and  _501
REMARK  202  A    between atoms: _501  and  _502
REMARK  203  A    between atoms: _504  and  _506
REMARK  204  A    between atoms: _506  and  _507
REMARK  205  A    between atoms: _506  and  _509
REMARK  206  A    between atoms: _509  and  _510
REMARK  207  A    between atoms: _513  and  _515
REMARK  208  A    between atoms: _515  and  _516
REMARK  209  A    between atoms: _518  and  _520
REMARK  210  A    between atoms: _520  and  _521
REMARK  211  A    between atoms: _520  and  _523
REMARK  212  A    between atoms: _523  and  _524
REMARK  213  A    between atoms: _524  and  _525
REMARK  214  A    between atoms: _530  and  _532
REMARK  215  A    between atoms: _532  and  _533
REMARK  216  A    between atoms: _532  and  _535
REMARK  217  A    between atoms: _535  and  _536
REMARK  218  A    between atoms: _538  and  _540
REMARK  219  A    between atoms: _540  and  _541
REMARK  220  A    between atoms: _540  and  _543
REMARK  221  A    between atoms: _543  and  _544
REMARK  222  A    between atoms: _549  and  _551
REMARK  223  A    between atoms: _551  and  _552
REMARK  224  A    between atoms: _551  and  _554
REMARK  225  A    between atoms: _554  and  _555
REMARK  226  A    between atoms: _557  and  _559
REMARK  227  A    between atoms: _559  and  _560
REMARK  228  A    between atoms: _559  and  _562
REMARK  229  A    between atoms: _562  and  _563
REMARK  230  A    between atoms: _566  and  _568
REMARK  231  A    between atoms: _568  and  _569
REMARK  232  A    between atoms: _568  and  _571
REMARK  233  A    between atoms: _571  and  _572
REMARK  234  A    between atoms: _578  and  _580
REMARK  235  A    between atoms: _580  and  _581
REMARK  236  A    between atoms: _580  and  _583
REMARK  237  A    between atoms: _583  and  _584
REMARK  238  A    between atoms: _586  and  _588
REMARK  239  A    between atoms: _588  and  _589
REMARK  240  A    between atoms: _588  and  _591
REMARK  241  A    between atoms: _591  and  _592
REMARK  242  A    between atoms: _595  and  _597
REMARK  243  A    between atoms: _597  and  _598
REMARK  244  A    between atoms: _597  and  _600
REMARK  245  A    between atoms: _600  and  _601
REMARK  246  A    between atoms: _607  and  _609
REMARK  247  A    between atoms: _609  and  _610
REMARK  248  A    between atoms: _612  and  _614
REMARK  249  A    between atoms: _614  and  _615
REMARK  250  A    between atoms: _614  and  _617
REMARK  251  A    between atoms: _617  and  _618
REMARK                            x       y       z     vdW  Elec       q    Type
REMARK                         _______ _______ _______ _____ _____    ______ ____
ROOT
ATOM      1  O   HOH     1      17.016  10.622  26.956  0.00  0.00    +0.000 OA
ENDROOT
TORSDOF 0
