REMARK  Name = ../refined-set-2016/3kiv/3kiv_pocket.pdb
REMARK  96 active torsions:
REMARK  status: ('A' for Active; 'I' for Inactive)
REMARK    1  A    between atoms: _1  and  _3
REMARK    2  A    between atoms: _3  and  _4
REMARK    3  A    between atoms: _3  and  _6
REMARK    4  A    between atoms: _6  and  _7
REMARK    5  A    between atoms: _17  and  _19
REMARK    6  A    between atoms: _19  and  _20
REMARK    7  A    between atoms: _19  and  _22
REMARK    8  A    between atoms: _22  and  _23
REMARK    9  A    between atoms: _28  and  _30
REMARK   10  A    between atoms: _30  and  _31
REMARK   11  A    between atoms: _30  and  _33
REMARK   12  A    between atoms: _33  and  _34
REMARK   13  A    between atoms: _34  and  _35
REMARK   14  A    between atoms: _35  and  _36
REMARK   15  A    between atoms: _45  and  _47
REMARK   16  A    between atoms: _47  and  _48
REMARK   17  A    between atoms: _47  and  _50
REMARK   18  A    between atoms: _50  and  _51
REMARK   19  A    between atoms: _56  and  _58
REMARK   20  A    between atoms: _58  and  _59
REMARK   21  A    between atoms: _58  and  _61
REMARK   22  A    between atoms: _61  and  _62
REMARK   23  A    between atoms: _62  and  _63
REMARK   24  A    between atoms: _68  and  _70
REMARK   25  A    between atoms: _70  and  _71
REMARK   26  A    between atoms: _70  and  _73
REMARK   27  A    between atoms: _73  and  _74
REMARK   28  A    between atoms: _74  and  _75
REMARK   29  A    between atoms: _75  and  _76
REMARK   30  A    between atoms: _85  and  _87
REMARK   31  A    between atoms: _87  and  _88
REMARK   32  A    between atoms: _87  and  _90
REMARK   33  A    between atoms: _90  and  _91
REMARK   34  A    between atoms: _94  and  _96
REMARK   35  A    between atoms: _96  and  _97
REMARK   36  A    between atoms: _96  and  _99
REMARK   37  A    between atoms: _99  and  _100
REMARK   38  A    between atoms: _105  and  _106
REMARK   39  A    between atoms: _108  and  _110
REMARK   40  A    between atoms: _110  and  _111
REMARK   41  A    between atoms: _110  and  _113
REMARK   42  A    between atoms: _113  and  _114
REMARK   43  A    between atoms: _115  and  _116
REMARK   44  A    between atoms: _125  and  _127
REMARK   45  A    between atoms: _127  and  _128
REMARK   46  A    between atoms: _127  and  _130
REMARK   47  A    between atoms: _130  and  _131
REMARK   48  A    between atoms: _137  and  _138
REMARK   49  A    between atoms: _143  and  _145
REMARK   50  A    between atoms: _145  and  _146
REMARK   51  A    between atoms: _145  and  _148
REMARK   52  A    between atoms: _148  and  _149
REMARK   53  A    between atoms: _152  and  _154
REMARK   54  A    between atoms: _154  and  _155
REMARK   55  A    between atoms: _158  and  _160
REMARK   56  A    between atoms: _160  and  _161
REMARK   57  A    between atoms: _160  and  _163
REMARK   58  A    between atoms: _163  and  _164
REMARK   59  A    between atoms: _167  and  _169
REMARK   60  A    between atoms: _169  and  _170
REMARK   61  A    between atoms: _169  and  _172
REMARK   62  A    between atoms: _172  and  _173
REMARK   63  A    between atoms: _176  and  _178
REMARK   64  A    between atoms: _178  and  _179
REMARK   65  A    between atoms: _182  and  _183
REMARK   66  A    between atoms: _188  and  _190
REMARK   67  A    between atoms: _190  and  _191
REMARK   68  A    between atoms: _190  and  _193
REMARK   69  A    between atoms: _193  and  _194
REMARK   70  A    between atoms: _204  and  _206
REMARK   71  A    between atoms: _206  and  _207
REMARK   72  A    between atoms: _206  and  _209
REMARK   73  A    between atoms: _211  and  _213
REMARK   74  A    between atoms: _213  and  _214
REMARK   75  A    between atoms: _213  and  _216
REMARK   76  A    between atoms: _216  and  _217
REMARK   77  A    between atoms: _223  and  _225
REMARK   78  A    between atoms: _225  and  _226
REMARK   79  A    between atoms: _225  and  _228
REMARK   80  A    between atoms: _228  and  _229
REMARK   81  A    between atoms: _229  and  _230
REMARK   82  A    between atoms: _230  and  _231
REMARK   83  A    between atoms: _240  and  _242
REMARK   84  A    between atoms: _242  and  _243
REMARK   85  A    between atoms: _242  and  _245
REMARK   86  A    between atoms: _245  and  _246
REMARK   87  A    between atoms: _256  and  _258
REMARK   88  A    between atoms: _258  and  _259
REMARK   89  A    between atoms: _258  and  _261
REMARK   90  A    between atoms: _261  and  _262
REMARK   91  A    between atoms: _262  and  _263
REMARK   92  A    between atoms: _266  and  _268
REMARK   93  A    between atoms: _268  and  _269
REMARK   94  A    between atoms: _268  and  _271
REMARK   95  A    between atoms: _271  and  _272
REMARK   96  A    between atoms: _277  and  _278
REMARK                            x       y       z     vdW  Elec       q    Type
REMARK                         _______ _______ _______ _____ _____    ______ ____
ROOT
ATOM      1  CG  TRP A   1       2.454   9.470  12.875  0.00  0.00    -0.002 A 
ATOM      2  CD1 TRP A   1       2.231   9.858  14.149  0.00  0.00    +0.068 A 
ATOM      3  NE1 TRP A   1       3.293  10.675  14.539  0.00  0.00    -0.352 N 
ATOM      4  HE1 TRP A   1       3.433  11.067  15.492  0.00  0.00    +0.166 HD
ATOM      5  CE2 TRP A   1       4.120  10.879  13.470  0.00  0.00    +0.056 A 
ATOM      6  CZ2 TRP A   1       5.210  11.731  13.352  0.00  0.00    +0.017 A 
ATOM      7  CH2 TRP A   1       5.850  11.815  12.137  0.00  0.00    +0.001 A 
ATOM      8  CZ3 TRP A   1       5.437  11.007  11.075  0.00  0.00    +0.000 A 
ATOM      9  CE3 TRP A   1       4.287  10.190  11.157  0.00  0.00    +0.001 A 
ATOM     10  CD2 TRP A   1       3.640  10.134  12.396  0.00  0.00    +0.013 A 
ENDROOT
BRANCH   1  11
ATOM     11  CB  TRP A   1       1.621   8.521  12.083  0.00  0.00    +0.053 C 
BRANCH  11  12
ATOM     12  CA  TRP A   1       0.724   9.274  11.083  0.00  0.00    +0.137 C 
BRANCH  12  13
ATOM     13  N   TRP A   1      -0.117  10.129  11.987  0.00  0.00    -0.239 NA
ATOM     14  H   TRP A   1       0.021  10.125  13.018  0.00  0.00    +0.142 HD
ENDBRANCH  12  13
BRANCH  12  15
ATOM     15  C   TRP A   1      -0.042   8.289  10.233  0.00  0.00    +0.224 C 
ATOM     16  O   TRP A   1       0.351   7.972   9.117  0.00  0.00    -0.287 OA
ENDBRANCH  12  15
ENDBRANCH  11  12
ENDBRANCH   1  11
TORSDOF 4
REMARK  Name = ../refined-set-2016/3kiv/3kiv_pocket.pdb
REMARK  96 active torsions:
REMARK  status: ('A' for Active; 'I' for Inactive)
REMARK    1  A    between atoms: _1  and  _3
REMARK    2  A    between atoms: _3  and  _4
REMARK    3  A    between atoms: _3  and  _6
REMARK    4  A    between atoms: _6  and  _7
REMARK    5  A    between atoms: _17  and  _19
REMARK    6  A    between atoms: _19  and  _20
REMARK    7  A    between atoms: _19  and  _22
REMARK    8  A    between atoms: _22  and  _23
REMARK    9  A    between atoms: _28  and  _30
REMARK   10  A    between atoms: _30  and  _31
REMARK   11  A    between atoms: _30  and  _33
REMARK   12  A    between atoms: _33  and  _34
REMARK   13  A    between atoms: _34  and  _35
REMARK   14  A    between atoms: _35  and  _36
REMARK   15  A    between atoms: _45  and  _47
REMARK   16  A    between atoms: _47  and  _48
REMARK   17  A    between atoms: _47  and  _50
REMARK   18  A    between atoms: _50  and  _51
REMARK   19  A    between atoms: _56  and  _58
REMARK   20  A    between atoms: _58  and  _59
REMARK   21  A    between atoms: _58  and  _61
REMARK   22  A    between atoms: _61  and  _62
REMARK   23  A    between atoms: _62  and  _63
REMARK   24  A    between atoms: _68  and  _70
REMARK   25  A    between atoms: _70  and  _71
REMARK   26  A    between atoms: _70  and  _73
REMARK   27  A    between atoms: _73  and  _74
REMARK   28  A    between atoms: _74  and  _75
REMARK   29  A    between atoms: _75  and  _76
REMARK   30  A    between atoms: _85  and  _87
REMARK   31  A    between atoms: _87  and  _88
REMARK   32  A    between atoms: _87  and  _90
REMARK   33  A    between atoms: _90  and  _91
REMARK   34  A    between atoms: _94  and  _96
REMARK   35  A    between atoms: _96  and  _97
REMARK   36  A    between atoms: _96  and  _99
REMARK   37  A    between atoms: _99  and  _100
REMARK   38  A    between atoms: _105  and  _106
REMARK   39  A    between atoms: _108  and  _110
REMARK   40  A    between atoms: _110  and  _111
REMARK   41  A    between atoms: _110  and  _113
REMARK   42  A    between atoms: _113  and  _114
REMARK   43  A    between atoms: _115  and  _116
REMARK   44  A    between atoms: _125  and  _127
REMARK   45  A    between atoms: _127  and  _128
REMARK   46  A    between atoms: _127  and  _130
REMARK   47  A    between atoms: _130  and  _131
REMARK   48  A    between atoms: _137  and  _138
REMARK   49  A    between atoms: _143  and  _145
REMARK   50  A    between atoms: _145  and  _146
REMARK   51  A    between atoms: _145  and  _148
REMARK   52  A    between atoms: _148  and  _149
REMARK   53  A    between atoms: _152  and  _154
REMARK   54  A    between atoms: _154  and  _155
REMARK   55  A    between atoms: _158  and  _160
REMARK   56  A    between atoms: _160  and  _161
REMARK   57  A    between atoms: _160  and  _163
REMARK   58  A    between atoms: _163  and  _164
REMARK   59  A    between atoms: _167  and  _169
REMARK   60  A    between atoms: _169  and  _170
REMARK   61  A    between atoms: _169  and  _172
REMARK   62  A    between atoms: _172  and  _173
REMARK   63  A    between atoms: _176  and  _178
REMARK   64  A    between atoms: _178  and  _179
REMARK   65  A    between atoms: _182  and  _183
REMARK   66  A    between atoms: _188  and  _190
REMARK   67  A    between atoms: _190  and  _191
REMARK   68  A    between atoms: _190  and  _193
REMARK   69  A    between atoms: _193  and  _194
REMARK   70  A    between atoms: _204  and  _206
REMARK   71  A    between atoms: _206  and  _207
REMARK   72  A    between atoms: _206  and  _209
REMARK   73  A    between atoms: _211  and  _213
REMARK   74  A    between atoms: _213  and  _214
REMARK   75  A    between atoms: _213  and  _216
REMARK   76  A    between atoms: _216  and  _217
REMARK   77  A    between atoms: _223  and  _225
REMARK   78  A    between atoms: _225  and  _226
REMARK   79  A    between atoms: _225  and  _228
REMARK   80  A    between atoms: _228  and  _229
REMARK   81  A    between atoms: _229  and  _230
REMARK   82  A    between atoms: _230  and  _231
REMARK   83  A    between atoms: _240  and  _242
REMARK   84  A    between atoms: _242  and  _243
REMARK   85  A    between atoms: _242  and  _245
REMARK   86  A    between atoms: _245  and  _246
REMARK   87  A    between atoms: _256  and  _258
REMARK   88  A    between atoms: _258  and  _259
REMARK   89  A    between atoms: _258  and  _261
REMARK   90  A    between atoms: _261  and  _262
REMARK   91  A    between atoms: _262  and  _263
REMARK   92  A    between atoms: _266  and  _268
REMARK   93  A    between atoms: _268  and  _269
REMARK   94  A    between atoms: _268  and  _271
REMARK   95  A    between atoms: _271  and  _272
REMARK   96  A    between atoms: _277  and  _278
REMARK                            x       y       z     vdW  Elec       q    Type
REMARK                         _______ _______ _______ _____ _____    ______ ____
ROOT
ATOM      1  C   HIS A   3       3.434   8.200   3.364  0.00  0.00    +0.241 C 
ATOM      2  N   GLN A   4       4.674   7.788   3.640  0.00  0.00    -0.297 N 
ATOM      3  H   GLN A   4       5.464   8.464   3.617  0.00  0.00    +0.150 HD
ATOM      4  O   HIS A   3       2.386   7.513   3.543  0.00  0.00    -0.273 OA
ENDROOT
BRANCH   2   5
ATOM      5  CA  GLN A   4       4.928   6.348   3.984  0.00  0.00    +0.149 C 
BRANCH   5   6
ATOM      6  C   GLN A   4       5.431   6.128   5.382  0.00  0.00    +0.241 C 
ATOM      7  N   ARG A   5       5.353   7.119   6.269  0.00  0.00    -0.297 N 
ATOM      8  H   ARG A   5       4.961   8.042   5.994  0.00  0.00    +0.150 HD
ATOM      9  O   GLN A   4       5.895   5.021   5.743  0.00  0.00    -0.273 OA
BRANCH   7  10
ATOM     10  CA  ARG A   5       5.827   6.891   7.639  0.00  0.00    +0.149 C 
BRANCH  10  11
ATOM     11  C   ARG A   5       4.577   6.558   8.482  0.00  0.00    +0.241 C 
ATOM     12  O   ARG A   5       4.233   7.401   9.326  0.00  0.00    -0.273 OA
ATOM     13  N   THR A   6       4.070   5.363   8.160  0.00  0.00    -0.296 N 
ATOM     14  H   THR A   6       4.500   4.773   7.420  0.00  0.00    +0.150 HD
BRANCH  13  15
ATOM     15  CA  THR A   6       2.861   4.913   8.908  0.00  0.00    +0.164 C 
BRANCH  15  16
ATOM     16  C   THR A   6       3.220   3.958  10.028  0.00  0.00    +0.229 C 
ATOM     17  O   THR A   6       4.188   3.139   9.906  0.00  0.00    -0.286 OA
ENDBRANCH  15  16
BRANCH  15  18
ATOM     18  CB  THR A   6       1.805   4.401   7.863  0.00  0.00    +0.136 C 
ATOM     19  CG2 THR A   6       1.203   5.486   6.941  0.00  0.00    +0.034 C 
BRANCH  18  20
ATOM     20  OG1 THR A   6       2.404   3.438   6.981  0.00  0.00    -0.382 OA
ATOM     21  HG1 THR A   6       1.728   3.124   6.329  0.00  0.00    +0.210 HD
ENDBRANCH  18  20
ENDBRANCH  15  18
ENDBRANCH  13  15
ENDBRANCH  10  11
BRANCH  10  22
ATOM     22  CB  ARG A   5       6.637   8.006   8.321  0.00  0.00    +0.033 C 
BRANCH  22  23
ATOM     23  CG  ARG A   5       7.474   8.773   7.357  0.00  0.00    +0.045 C 
BRANCH  23  24
ATOM     24  CD  ARG A   5       8.402   7.970   6.558  0.00  0.00    +0.174 C 
BRANCH  24  25
ATOM     25  NE  ARG A   5       9.176   8.752   5.593  0.00  0.00    -0.265 N 
ATOM     26  CZ  ARG A   5       9.998   9.746   5.976  0.00  0.00    +0.342 C 
ATOM     27  NH2 ARG A   5      10.167  10.143   7.232  0.00  0.00    -0.292 N 
ATOM     28 HH21 ARG A   5       9.644   9.676   8.000  0.00  0.00    +0.255 HD
ATOM     29 HH22 ARG A   5      10.823  10.921   7.448  0.00  0.00    +0.255 HD
ATOM     30  NH1 ARG A   5      10.741  10.337   5.032  0.00  0.00    -0.292 N 
ATOM     31 HH11 ARG A   5      11.389  11.109   5.288  0.00  0.00    +0.255 HD
ATOM     32 HH12 ARG A   5      10.670  10.024   4.043  0.00  0.00    +0.255 HD
ATOM     33  HE  ARG A   5       9.088   8.533   4.580  0.00  0.00    +0.259 HD
ENDBRANCH  24  25
ENDBRANCH  23  24
ENDBRANCH  22  23
ENDBRANCH  10  22
ENDBRANCH   7  10
ENDBRANCH   5   6
BRANCH   5  34
ATOM     34  CB  GLN A   4       5.855   5.667   2.951  0.00  0.00    +0.039 C 
BRANCH  34  35
ATOM     35  CG  GLN A   4       5.201   5.077   1.737  0.00  0.00    +0.087 C 
BRANCH  35  36
ATOM     36  CD  GLN A   4       3.885   4.376   1.902  0.00  0.00    +0.219 C 
ATOM     37  NE2 GLN A   4       2.767   5.082   2.151  0.00  0.00    -0.329 N 
ATOM     38 HE21 GLN A   4       2.824   6.109   2.303  0.00  0.00    +0.145 HD
ATOM     39 HE22 GLN A   4       1.846   4.600   2.192  0.00  0.00    +0.145 HD
ATOM     40  OE1 GLN A   4       3.755   3.140   1.727  0.00  0.00    -0.275 OA
ENDBRANCH  35  36
ENDBRANCH  34  35
ENDBRANCH   5  34
ENDBRANCH   2   5
BRANCH   1  41
ATOM     41  CA  HIS A   3       3.356   9.663   3.008  0.00  0.00    +0.155 C 
BRANCH  41  43
ATOM     42  C   ARG A   2       1.782  11.235   1.951  0.00  0.00    +0.241 C 
ATOM     43  N   HIS A   3       1.996  10.099   2.583  0.00  0.00    -0.297 N 
ATOM     44  H   HIS A   3       1.185   9.483   2.793  0.00  0.00    +0.150 HD
ATOM     45  O   ARG A   2       2.635  12.009   1.494  0.00  0.00    -0.273 OA
BRANCH  42  46
ATOM     46  CA  ARG A   2       0.237  11.545   1.736  0.00  0.00    +0.149 C 
BRANCH  46  49
ATOM     47  C   HIS A   1      -0.223  13.544   3.174  0.00  0.00    +0.239 C 
ATOM     48  O   HIS A   1      -0.274  12.871   4.239  0.00  0.00    -0.274 OA
ATOM     49  N   ARG A   2       0.046  13.001   2.007  0.00  0.00    -0.297 N 
ATOM     50  H   ARG A   2       0.134  13.646   1.196  0.00  0.00    +0.150 HD
BRANCH  47  51
ATOM     51  CA  HIS A   1      -0.248  15.054   3.208  0.00  0.00    +0.151 C 
BRANCH  51  52
ATOM     52  N   HIS A   1      -1.436  15.498   3.932  0.00  0.00    -0.238 NA
ATOM     53  H   HIS A   1      -1.499  15.447   4.969  0.00  0.00    +0.142 HD
ENDBRANCH  51  52
BRANCH  51  54
ATOM     54  CB  HIS A   1       1.062  15.674   3.833  0.00  0.00    +0.074 C 
BRANCH  54  55
ATOM     55  CG  HIS A   1       0.937  17.160   4.088  0.00  0.00    +0.082 A 
ATOM     56  ND1 HIS A   1       0.720  17.743   5.331  0.00  0.00    -0.227 NA
ATOM     57  CE1 HIS A   1       0.743  19.064   5.233  0.00  0.00    +0.199 A 
ATOM     58  NE2 HIS A   1       0.930  19.361   3.958  0.00  0.00    -0.221 NA
ATOM     59  CD2 HIS A   1       1.112  18.197   3.220  0.00  0.00    +0.115 A 
ENDBRANCH  54  55
ENDBRANCH  51  54
ENDBRANCH  47  51
ENDBRANCH  46  49
BRANCH  46  60
ATOM     60  CB  ARG A   2      -0.238  11.131   0.423  0.00  0.00    +0.033 C 
BRANCH  60  61
ATOM     61  CG  ARG A   2       0.162   9.917  -0.380  0.00  0.00    +0.045 C 
BRANCH  61  62
ATOM     62  CD  ARG A   2      -0.069  10.158  -1.810  0.00  0.00    +0.174 C 
BRANCH  62  63
ATOM     63  NE  ARG A   2       0.760   9.607  -2.856  0.00  0.00    -0.265 N 
ATOM     64  HE  ARG A   2       1.068   8.618  -2.763  0.00  0.00    +0.259 HD
ATOM     65  CZ  ARG A   2       1.156  10.284  -3.933  0.00  0.00    +0.342 C 
ATOM     66  NH2 ARG A   2       0.922  11.593  -4.096  0.00  0.00    -0.292 N 
ATOM     67 HH21 ARG A   2       0.411  12.125  -3.363  0.00  0.00    +0.255 HD
ATOM     68 HH22 ARG A   2       1.252  12.077  -4.955  0.00  0.00    +0.255 HD
ATOM     69  NH1 ARG A   2       1.713   9.713  -4.996  0.00  0.00    -0.292 N 
ATOM     70 HH11 ARG A   2       1.860   8.684  -5.016  0.00  0.00    +0.255 HD
ATOM     71 HH12 ARG A   2       2.002  10.296  -5.808  0.00  0.00    +0.255 HD
ENDBRANCH  62  63
ENDBRANCH  61  62
ENDBRANCH  60  61
ENDBRANCH  46  60
ENDBRANCH  42  46
ENDBRANCH  41  43
BRANCH  41  72
ATOM     72  CB  HIS A   3       3.800  10.474   4.267  0.00  0.00    +0.076 C 
BRANCH  72  73
ATOM     73  CG  HIS A   3       3.071  10.031   5.479  0.00  0.00    +0.082 A 
ATOM     74  CD2 HIS A   3       3.442   9.152   6.420  0.00  0.00    +0.115 A 
ATOM     75  NE2 HIS A   3       2.479   9.071   7.371  0.00  0.00    -0.221 NA
ATOM     76  CE1 HIS A   3       1.571  10.005   7.075  0.00  0.00    +0.199 A 
ATOM     77  ND1 HIS A   3       1.919  10.592   5.928  0.00  0.00    -0.227 NA
ENDBRANCH  72  73
ENDBRANCH  41  72
ENDBRANCH   1  41
TORSDOF 29
REMARK  Name = ../refined-set-2016/3kiv/3kiv_pocket.pdb
REMARK  96 active torsions:
REMARK  status: ('A' for Active; 'I' for Inactive)
REMARK    1  A    between atoms: _1  and  _3
REMARK    2  A    between atoms: _3  and  _4
REMARK    3  A    between atoms: _3  and  _6
REMARK    4  A    between atoms: _6  and  _7
REMARK    5  A    between atoms: _17  and  _19
REMARK    6  A    between atoms: _19  and  _20
REMARK    7  A    between atoms: _19  and  _22
REMARK    8  A    between atoms: _22  and  _23
REMARK    9  A    between atoms: _28  and  _30
REMARK   10  A    between atoms: _30  and  _31
REMARK   11  A    between atoms: _30  and  _33
REMARK   12  A    between atoms: _33  and  _34
REMARK   13  A    between atoms: _34  and  _35
REMARK   14  A    between atoms: _35  and  _36
REMARK   15  A    between atoms: _45  and  _47
REMARK   16  A    between atoms: _47  and  _48
REMARK   17  A    between atoms: _47  and  _50
REMARK   18  A    between atoms: _50  and  _51
REMARK   19  A    between atoms: _56  and  _58
REMARK   20  A    between atoms: _58  and  _59
REMARK   21  A    between atoms: _58  and  _61
REMARK   22  A    between atoms: _61  and  _62
REMARK   23  A    between atoms: _62  and  _63
REMARK   24  A    between atoms: _68  and  _70
REMARK   25  A    between atoms: _70  and  _71
REMARK   26  A    between atoms: _70  and  _73
REMARK   27  A    between atoms: _73  and  _74
REMARK   28  A    between atoms: _74  and  _75
REMARK   29  A    between atoms: _75  and  _76
REMARK   30  A    between atoms: _85  and  _87
REMARK   31  A    between atoms: _87  and  _88
REMARK   32  A    between atoms: _87  and  _90
REMARK   33  A    between atoms: _90  and  _91
REMARK   34  A    between atoms: _94  and  _96
REMARK   35  A    between atoms: _96  and  _97
REMARK   36  A    between atoms: _96  and  _99
REMARK   37  A    between atoms: _99  and  _100
REMARK   38  A    between atoms: _105  and  _106
REMARK   39  A    between atoms: _108  and  _110
REMARK   40  A    between atoms: _110  and  _111
REMARK   41  A    between atoms: _110  and  _113
REMARK   42  A    between atoms: _113  and  _114
REMARK   43  A    between atoms: _115  and  _116
REMARK   44  A    between atoms: _125  and  _127
REMARK   45  A    between atoms: _127  and  _128
REMARK   46  A    between atoms: _127  and  _130
REMARK   47  A    between atoms: _130  and  _131
REMARK   48  A    between atoms: _137  and  _138
REMARK   49  A    between atoms: _143  and  _145
REMARK   50  A    between atoms: _145  and  _146
REMARK   51  A    between atoms: _145  and  _148
REMARK   52  A    between atoms: _148  and  _149
REMARK   53  A    between atoms: _152  and  _154
REMARK   54  A    between atoms: _154  and  _155
REMARK   55  A    between atoms: _158  and  _160
REMARK   56  A    between atoms: _160  and  _161
REMARK   57  A    between atoms: _160  and  _163
REMARK   58  A    between atoms: _163  and  _164
REMARK   59  A    between atoms: _167  and  _169
REMARK   60  A    between atoms: _169  and  _170
REMARK   61  A    between atoms: _169  and  _172
REMARK   62  A    between atoms: _172  and  _173
REMARK   63  A    between atoms: _176  and  _178
REMARK   64  A    between atoms: _178  and  _179
REMARK   65  A    between atoms: _182  and  _183
REMARK   66  A    between atoms: _188  and  _190
REMARK   67  A    between atoms: _190  and  _191
REMARK   68  A    between atoms: _190  and  _193
REMARK   69  A    between atoms: _193  and  _194
REMARK   70  A    between atoms: _204  and  _206
REMARK   71  A    between atoms: _206  and  _207
REMARK   72  A    between atoms: _206  and  _209
REMARK   73  A    between atoms: _211  and  _213
REMARK   74  A    between atoms: _213  and  _214
REMARK   75  A    between atoms: _213  and  _216
REMARK   76  A    between atoms: _216  and  _217
REMARK   77  A    between atoms: _223  and  _225
REMARK   78  A    between atoms: _225  and  _226
REMARK   79  A    between atoms: _225  and  _228
REMARK   80  A    between atoms: _228  and  _229
REMARK   81  A    between atoms: _229  and  _230
REMARK   82  A    between atoms: _230  and  _231
REMARK   83  A    between atoms: _240  and  _242
REMARK   84  A    between atoms: _242  and  _243
REMARK   85  A    between atoms: _242  and  _245
REMARK   86  A    between atoms: _245  and  _246
REMARK   87  A    between atoms: _256  and  _258
REMARK   88  A    between atoms: _258  and  _259
REMARK   89  A    between atoms: _258  and  _261
REMARK   90  A    between atoms: _261  and  _262
REMARK   91  A    between atoms: _262  and  _263
REMARK   92  A    between atoms: _266  and  _268
REMARK   93  A    between atoms: _268  and  _269
REMARK   94  A    between atoms: _268  and  _271
REMARK   95  A    between atoms: _271  and  _272
REMARK   96  A    between atoms: _277  and  _278
REMARK                            x       y       z     vdW  Elec       q    Type
REMARK                         _______ _______ _______ _____ _____    ______ ____
ROOT
ATOM      1  CG  TYR A   1       8.344   3.544  10.103  0.00  0.00    -0.020 A 
ATOM      2  CD2 TYR A   1       9.747   3.610  10.137  0.00  0.00    -0.001 A 
ATOM      3  CE2 TYR A   1      10.449   4.100   9.028  0.00  0.00    +0.036 A 
ATOM      4  CZ  TYR A   1       9.734   4.476   7.899  0.00  0.00    +0.134 A 
ATOM      5  CE1 TYR A   1       8.342   4.426   7.847  0.00  0.00    +0.036 A 
ATOM      6  CD1 TYR A   1       7.678   3.965   8.971  0.00  0.00    -0.001 A 
ENDROOT
BRANCH   4   7
ATOM      7  OH  TYR A   1      10.498   4.915   6.844  0.00  0.00    -0.506 OA
ATOM      8  HH  TYR A   1      11.022   5.707   7.124  0.00  0.00    +0.292 HD
ENDBRANCH   4   7
BRANCH   1   9
ATOM      9  CB  TYR A   1       7.679   2.993  11.313  0.00  0.00    +0.051 C 
BRANCH   9  10
ATOM     10  CA  TYR A   1       7.263   1.536  11.269  0.00  0.00    +0.137 C 
BRANCH  10  11
ATOM     11  N   TYR A   1       6.354   1.306  10.142  0.00  0.00    -0.239 NA
ATOM     12  H   TYR A   1       5.417   1.751  10.217  0.00  0.00    +0.142 HD
ENDBRANCH  10  11
BRANCH  10  13
ATOM     13  C   TYR A   1       6.526   1.235  12.570  0.00  0.00    +0.224 C 
ATOM     14  O   TYR A   1       6.265   2.158  13.320  0.00  0.00    -0.287 OA
ENDBRANCH  10  13
ENDBRANCH   9  10
ENDBRANCH   1   9
TORSDOF 5
REMARK  Name = ../refined-set-2016/3kiv/3kiv_pocket.pdb
REMARK  96 active torsions:
REMARK  status: ('A' for Active; 'I' for Inactive)
REMARK    1  A    between atoms: _1  and  _3
REMARK    2  A    between atoms: _3  and  _4
REMARK    3  A    between atoms: _3  and  _6
REMARK    4  A    between atoms: _6  and  _7
REMARK    5  A    between atoms: _17  and  _19
REMARK    6  A    between atoms: _19  and  _20
REMARK    7  A    between atoms: _19  and  _22
REMARK    8  A    between atoms: _22  and  _23
REMARK    9  A    between atoms: _28  and  _30
REMARK   10  A    between atoms: _30  and  _31
REMARK   11  A    between atoms: _30  and  _33
REMARK   12  A    between atoms: _33  and  _34
REMARK   13  A    between atoms: _34  and  _35
REMARK   14  A    between atoms: _35  and  _36
REMARK   15  A    between atoms: _45  and  _47
REMARK   16  A    between atoms: _47  and  _48
REMARK   17  A    between atoms: _47  and  _50
REMARK   18  A    between atoms: _50  and  _51
REMARK   19  A    between atoms: _56  and  _58
REMARK   20  A    between atoms: _58  and  _59
REMARK   21  A    between atoms: _58  and  _61
REMARK   22  A    between atoms: _61  and  _62
REMARK   23  A    between atoms: _62  and  _63
REMARK   24  A    between atoms: _68  and  _70
REMARK   25  A    between atoms: _70  and  _71
REMARK   26  A    between atoms: _70  and  _73
REMARK   27  A    between atoms: _73  and  _74
REMARK   28  A    between atoms: _74  and  _75
REMARK   29  A    between atoms: _75  and  _76
REMARK   30  A    between atoms: _85  and  _87
REMARK   31  A    between atoms: _87  and  _88
REMARK   32  A    between atoms: _87  and  _90
REMARK   33  A    between atoms: _90  and  _91
REMARK   34  A    between atoms: _94  and  _96
REMARK   35  A    between atoms: _96  and  _97
REMARK   36  A    between atoms: _96  and  _99
REMARK   37  A    between atoms: _99  and  _100
REMARK   38  A    between atoms: _105  and  _106
REMARK   39  A    between atoms: _108  and  _110
REMARK   40  A    between atoms: _110  and  _111
REMARK   41  A    between atoms: _110  and  _113
REMARK   42  A    between atoms: _113  and  _114
REMARK   43  A    between atoms: _115  and  _116
REMARK   44  A    between atoms: _125  and  _127
REMARK   45  A    between atoms: _127  and  _128
REMARK   46  A    between atoms: _127  and  _130
REMARK   47  A    between atoms: _130  and  _131
REMARK   48  A    between atoms: _137  and  _138
REMARK   49  A    between atoms: _143  and  _145
REMARK   50  A    between atoms: _145  and  _146
REMARK   51  A    between atoms: _145  and  _148
REMARK   52  A    between atoms: _148  and  _149
REMARK   53  A    between atoms: _152  and  _154
REMARK   54  A    between atoms: _154  and  _155
REMARK   55  A    between atoms: _158  and  _160
REMARK   56  A    between atoms: _160  and  _161
REMARK   57  A    between atoms: _160  and  _163
REMARK   58  A    between atoms: _163  and  _164
REMARK   59  A    between atoms: _167  and  _169
REMARK   60  A    between atoms: _169  and  _170
REMARK   61  A    between atoms: _169  and  _172
REMARK   62  A    between atoms: _172  and  _173
REMARK   63  A    between atoms: _176  and  _178
REMARK   64  A    between atoms: _178  and  _179
REMARK   65  A    between atoms: _182  and  _183
REMARK   66  A    between atoms: _188  and  _190
REMARK   67  A    between atoms: _190  and  _191
REMARK   68  A    between atoms: _190  and  _193
REMARK   69  A    between atoms: _193  and  _194
REMARK   70  A    between atoms: _204  and  _206
REMARK   71  A    between atoms: _206  and  _207
REMARK   72  A    between atoms: _206  and  _209
REMARK   73  A    between atoms: _211  and  _213
REMARK   74  A    between atoms: _213  and  _214
REMARK   75  A    between atoms: _213  and  _216
REMARK   76  A    between atoms: _216  and  _217
REMARK   77  A    between atoms: _223  and  _225
REMARK   78  A    between atoms: _225  and  _226
REMARK   79  A    between atoms: _225  and  _228
REMARK   80  A    between atoms: _228  and  _229
REMARK   81  A    between atoms: _229  and  _230
REMARK   82  A    between atoms: _230  and  _231
REMARK   83  A    between atoms: _240  and  _242
REMARK   84  A    between atoms: _242  and  _243
REMARK   85  A    between atoms: _242  and  _245
REMARK   86  A    between atoms: _245  and  _246
REMARK   87  A    between atoms: _256  and  _258
REMARK   88  A    between atoms: _258  and  _259
REMARK   89  A    between atoms: _258  and  _261
REMARK   90  A    between atoms: _261  and  _262
REMARK   91  A    between atoms: _262  and  _263
REMARK   92  A    between atoms: _266  and  _268
REMARK   93  A    between atoms: _268  and  _269
REMARK   94  A    between atoms: _268  and  _271
REMARK   95  A    between atoms: _271  and  _272
REMARK   96  A    between atoms: _277  and  _278
REMARK                            x       y       z     vdW  Elec       q    Type
REMARK                         _______ _______ _______ _____ _____    ______ ____
ROOT
ATOM      1  C   ASP A   6      16.726  14.213  13.492  0.00  0.00    +0.241 C 
ATOM      2  O   ASP A   6      17.198  13.413  14.321  0.00  0.00    -0.273 OA
ATOM      3  N   THR A   7      16.829  15.512  13.687  0.00  0.00    -0.295 N 
ATOM      4  H   THR A   7      16.444  16.154  12.965  0.00  0.00    +0.150 HD
ENDROOT
BRANCH   3   5
ATOM      5  CA  THR A   7      17.469  16.102  14.889  0.00  0.00    +0.176 C 
BRANCH   5   6
ATOM      6  C   THR A   7      16.577  16.462  16.034  0.00  0.00    +0.243 C 
ATOM      7  O   THR A   7      16.990  16.994  17.047  0.00  0.00    -0.273 OA
ATOM      8  N   GLY A   8      15.258  16.218  15.854  0.00  0.00    -0.295 N 
ATOM      9  H   GLY A   8      14.910  15.893  14.930  0.00  0.00    +0.150 HD
BRANCH   8  10
ATOM     10  CA  GLY A   8      14.318  16.414  16.968  0.00  0.00    +0.176 C 
BRANCH  10  11
ATOM     11  C   GLY A   8      12.971  15.850  16.507  0.00  0.00    +0.246 C 
ATOM     12  N   PRO A   9      12.091  15.655  17.410  0.00  0.00    -0.272 N 
ATOM     13  CD  PRO A   9      12.255  15.770  18.863  0.00  0.00    +0.094 C 
ATOM     14  CG  PRO A   9      11.116  14.841  19.397  0.00  0.00    +0.024 C 
ATOM     15  CB  PRO A   9      10.025  14.889  18.351  0.00  0.00    +0.031 C 
ATOM     16  CA  PRO A   9      10.690  15.236  17.035  0.00  0.00    +0.152 C 
ATOM     17  O   GLY A   8      12.863  15.685  15.316  0.00  0.00    -0.273 OA
BRANCH  16  18
ATOM     18  C   PRO A   9      10.016  16.323  16.191  0.00  0.00    +0.241 C 
ATOM     19  O   PRO A   9      10.184  17.567  16.313  0.00  0.00    -0.273 OA
ATOM     20  N   TRP A  10       9.346  15.846  15.166  0.00  0.00    -0.297 N 
ATOM     21  H   TRP A  10       9.297  14.807  15.142  0.00  0.00    +0.150 HD
BRANCH  20  22
ATOM     22  CA  TRP A  10       8.655  16.498  14.051  0.00  0.00    +0.153 C 
BRANCH  22  23
ATOM     23  C   TRP A  10       7.378  15.753  13.690  0.00  0.00    +0.241 C 
ATOM     24  O   TRP A  10       7.090  14.680  14.234  0.00  0.00    -0.273 OA
ATOM     25  N   CYS A  11       6.636  16.336  12.765  0.00  0.00    -0.296 N 
ATOM     26  H   CYS A  11       6.918  17.267  12.397  0.00  0.00    +0.150 HD
BRANCH  25  27
ATOM     27  CA  CYS A  11       5.424  15.696  12.248  0.00  0.00    +0.160 C 
BRANCH  27  28
ATOM     28  C   CYS A  11       5.014  16.283  10.912  0.00  0.00    +0.242 C 
ATOM     29  O   CYS A  11       5.446  17.379  10.513  0.00  0.00    -0.273 OA
ATOM     30  N   PHE A  12       4.146  15.555  10.230  0.00  0.00    -0.298 N 
ATOM     31  H   PHE A  12       3.912  14.586  10.525  0.00  0.00    +0.150 HD
BRANCH  30  32
ATOM     32  CA  PHE A  12       3.526  16.152   9.051  0.00  0.00    +0.141 C 
BRANCH  32  33
ATOM     33  C   PHE A  12       2.528  17.183   9.634  0.00  0.00    +0.227 C 
ATOM     34  O   PHE A  12       2.087  17.053  10.802  0.00  0.00    -0.286 OA
ENDBRANCH  32  33
BRANCH  32  35
ATOM     35  CB  PHE A  12       2.818  15.134   8.165  0.00  0.00    +0.054 C 
BRANCH  35  36
ATOM     36  CG  PHE A  12       3.822  14.175   7.560  0.00  0.00    -0.020 A 
ATOM     37  CD2 PHE A  12       4.078  12.949   8.181  0.00  0.00    -0.004 A 
ATOM     38  CE2 PHE A  12       5.054  12.118   7.645  0.00  0.00    -0.000 A 
ATOM     39  CZ  PHE A  12       5.700  12.468   6.452  0.00  0.00    -0.000 A 
ATOM     40  CE1 PHE A  12       5.443  13.693   5.839  0.00  0.00    -0.000 A 
ATOM     41  CD1 PHE A  12       4.528  14.564   6.425  0.00  0.00    -0.004 A 
ENDBRANCH  35  36
ENDBRANCH  32  35
ENDBRANCH  30  32
ENDBRANCH  27  28
BRANCH  27  42
ATOM     42  CB  CYS A  11       4.223  15.882  13.193  0.00  0.00    +0.098 C 
ATOM     43  SG  CYS A  11       3.820  17.666  13.621  0.00  0.00    -0.080 S 
ENDBRANCH  27  42
ENDBRANCH  25  27
ENDBRANCH  22  23
BRANCH  22  44
ATOM     44  CB  TRP A  10       9.553  16.518  12.801  0.00  0.00    +0.057 C 
BRANCH  44  45
ATOM     45  CG  TRP A  10       9.913  15.133  12.199  0.00  0.00    -0.002 A 
ATOM     46  CD1 TRP A  10      10.965  14.362  12.552  0.00  0.00    +0.068 A 
ATOM     47  NE1 TRP A  10      10.948  13.190  11.753  0.00  0.00    -0.352 N 
ATOM     48  HE1 TRP A  10      11.632  12.409  11.811  0.00  0.00    +0.166 HD
ATOM     49  CE2 TRP A  10       9.913  13.252  10.915  0.00  0.00    +0.056 A 
ATOM     50  CZ2 TRP A  10       9.490  12.313   9.953  0.00  0.00    +0.017 A 
ATOM     51  CH2 TRP A  10       8.362  12.641   9.180  0.00  0.00    +0.001 A 
ATOM     52  CZ3 TRP A  10       7.682  13.806   9.382  0.00  0.00    +0.000 A 
ATOM     53  CE3 TRP A  10       8.083  14.736  10.362  0.00  0.00    +0.001 A 
ATOM     54  CD2 TRP A  10       9.226  14.449  11.130  0.00  0.00    +0.013 A 
ENDBRANCH  44  45
ENDBRANCH  22  44
ENDBRANCH  20  22
ENDBRANCH  16  18
ENDBRANCH  10  11
ENDBRANCH   8  10
ENDBRANCH   5   6
BRANCH   5  55
ATOM     55  CB  THR A   7      18.387  17.340  14.440  0.00  0.00    +0.137 C 
ATOM     56  CG2 THR A   7      19.715  16.845  13.798  0.00  0.00    +0.034 C 
BRANCH  55  57
ATOM     57  OG1 THR A   7      17.639  18.099  13.495  0.00  0.00    -0.382 OA
ATOM     58  HG1 THR A   7      17.418  17.529  12.717  0.00  0.00    +0.210 HD
ENDBRANCH  55  57
ENDBRANCH   5  55
ENDBRANCH   3   5
BRANCH   1  59
ATOM     59  CA  ASP A   6      16.111  13.675  12.192  0.00  0.00    +0.160 C 
BRANCH  59  61
ATOM     60  C   ALA A   5      16.966  11.399  12.271  0.00  0.00    +0.241 C 
ATOM     61  N   ASP A   6      15.940  12.236  12.450  0.00  0.00    -0.297 N 
ATOM     62  H   ASP A   6      15.021  11.871  12.772  0.00  0.00    +0.150 HD
ATOM     63  O   ALA A   5      18.059  11.697  11.744  0.00  0.00    -0.273 OA
BRANCH  60  64
ATOM     64  CA  ALA A   5      16.598   9.968  12.670  0.00  0.00    +0.149 C 
ATOM     65  CB  ALA A   5      17.746   9.064  12.217  0.00  0.00    +0.031 C 
BRANCH  64  67
ATOM     66  C   ASP A   4      15.067   9.530  10.803  0.00  0.00    +0.241 C 
ATOM     67  N   ALA A   5      15.300   9.493  12.108  0.00  0.00    -0.297 N 
ATOM     68  H   ALA A   5      14.567   9.128  12.749  0.00  0.00    +0.150 HD
ATOM     69  O   ASP A   4      15.843  10.003   9.955  0.00  0.00    -0.273 OA
BRANCH  66  70
ATOM     70  CA  ASP A   4      13.758   8.986  10.237  0.00  0.00    +0.160 C 
BRANCH  70  73
ATOM     71  C   PRO A   3      12.222   7.728  11.706  0.00  0.00    +0.241 C 
ATOM     72  O   PRO A   3      12.543   6.597  11.331  0.00  0.00    -0.273 OA
ATOM     73  N   ASP A   4      12.716   8.854  11.242  0.00  0.00    -0.297 N 
ATOM     74  H   ASP A   4      12.324   9.735  11.631  0.00  0.00    +0.150 HD
BRANCH  71  81
ATOM     75  C   ASN A   2      11.732   9.703  14.174  0.00  0.00    +0.244 C 
ATOM     76  O   ASN A   2      12.738   9.189  14.685  0.00  0.00    -0.273 OA
ATOM     77  N   PRO A   3      10.922   9.165  13.289  0.00  0.00    -0.272 N 
ATOM     78  CD  PRO A   3       9.700   9.803  12.758  0.00  0.00    +0.094 C 
ATOM     79  CG  PRO A   3       9.036   8.751  11.908  0.00  0.00    +0.024 C 
ATOM     80  CB  PRO A   3       9.781   7.462  12.044  0.00  0.00    +0.031 C 
ATOM     81  CA  PRO A   3      11.101   7.840  12.734  0.00  0.00    +0.152 C 
BRANCH  75  82
ATOM     82  CA  ASN A   2      11.323  11.076  14.739  0.00  0.00    +0.158 C 
BRANCH  82  84
ATOM     83  C   ARG A   1       9.258  11.844  15.800  0.00  0.00    +0.239 C 
ATOM     84  N   ASN A   2      10.149  10.918  15.637  0.00  0.00    -0.297 N 
ATOM     85  H   ASN A   2      10.038  10.024  16.157  0.00  0.00    +0.150 HD
ATOM     86  O   ARG A   1       9.315  12.907  15.184  0.00  0.00    -0.274 OA
BRANCH  83  87
ATOM     87  CA  ARG A   1       8.057  11.604  16.691  0.00  0.00    +0.149 C 
BRANCH  87  88
ATOM     88  N   ARG A   1       7.170  12.803  16.644  0.00  0.00    -0.238 NA
ATOM     89  H   ARG A   1       7.107  13.368  15.773  0.00  0.00    +0.142 HD
ENDBRANCH  87  88
BRANCH  87  90
ATOM     90  CB  ARG A   1       7.195  10.414  16.201  0.00  0.00    +0.055 C 
BRANCH  90  91
ATOM     91  CG  ARG A   1       6.163  10.043  17.294  0.00  0.00    +0.012 C 
ATOM     92  CD  ARG A   1       6.682   9.227  18.398  0.00  0.00    +0.143 C 
BRANCH  92  93
ATOM     93  NE  ARG A   1       5.875   9.107  19.565  0.00  0.00    -0.243 N 
ATOM     94  CZ  ARG A   1       5.426   9.750  20.607  0.00  0.00    +0.346 C 
ATOM     95  NH2 ARG A   1       4.504   9.258  21.454  0.00  0.00    -0.292 N 
ATOM     96 HH21 ARG A   1       4.190   9.825  22.267  0.00  0.00    +0.255 HD
ATOM     97 HH22 ARG A   1       4.106   8.310  21.296  0.00  0.00    +0.255 HD
ATOM     98  NH1 ARG A   1       5.767  11.012  20.922  0.00  0.00    -0.292 N 
ATOM     99 HH11 ARG A   1       5.368  11.462  21.771  0.00  0.00    +0.255 HD
ATOM    100 HH12 ARG A   1       6.429  11.538  20.317  0.00  0.00    +0.255 HD
ATOM    101  HE  ARG A   1       5.501   8.137  19.600  0.00  0.00    +0.265 HD
ENDBRANCH  92  93
ENDBRANCH  90  91
ENDBRANCH  87  90
ENDBRANCH  83  87
ENDBRANCH  82  84
BRANCH  82 102
ATOM    102  CB  ASN A   2      12.427  11.739  15.547  0.00  0.00    +0.114 C 
BRANCH 102 103
ATOM    103  CG  ASN A   2      13.755  11.931  14.830  0.00  0.00    +0.222 C 
ATOM    104  ND2 ASN A   2      14.795  12.145  15.640  0.00  0.00    -0.329 N 
ATOM    105 HD21 ASN A   2      14.670  12.093  16.671  0.00  0.00    +0.145 HD
ATOM    106 HD22 ASN A   2      15.730  12.363  15.240  0.00  0.00    +0.145 HD
ATOM    107  OD1 ASN A   2      13.813  11.972  13.608  0.00  0.00    -0.275 OA
ENDBRANCH 102 103
ENDBRANCH  82 102
ENDBRANCH  75  82
ENDBRANCH  71  81
ENDBRANCH  70  73
BRANCH  70 108
ATOM    108  CB  ASP A   4      13.228   9.860   9.082  0.00  0.00    +0.143 C 
BRANCH 108 109
ATOM    109  CG  ASP A   4      12.949  11.287   9.535  0.00  0.00    +0.367 C 
ATOM    110  OD2 ASP A   4      12.829  11.527  10.783  0.00  0.00    -0.246 OA
ATOM    111  OD1 ASP A   4      12.716  12.121   8.638  0.00  0.00    -0.246 OA
ENDBRANCH 108 109
ENDBRANCH  70 108
ENDBRANCH  66  70
ENDBRANCH  64  67
ENDBRANCH  60  64
ENDBRANCH  59  61
BRANCH  59 112
ATOM    112  CB  ASP A   6      14.829  14.240  11.646  0.00  0.00    +0.143 C 
BRANCH 112 113
ATOM    113  CG  ASP A   6      15.033  15.585  10.990  0.00  0.00    +0.367 C 
ATOM    114  OD2 ASP A   6      16.003  16.303  11.358  0.00  0.00    -0.246 OA
ATOM    115  OD1 ASP A   6      14.164  15.944  10.162  0.00  0.00    -0.246 OA
ENDBRANCH 112 113
ENDBRANCH  59 112
ENDBRANCH   1  59
TORSDOF 38
REMARK  Name = ../refined-set-2016/3kiv/3kiv_pocket.pdb
REMARK  96 active torsions:
REMARK  status: ('A' for Active; 'I' for Inactive)
REMARK    1  A    between atoms: _1  and  _3
REMARK    2  A    between atoms: _3  and  _4
REMARK    3  A    between atoms: _3  and  _6
REMARK    4  A    between atoms: _6  and  _7
REMARK    5  A    between atoms: _17  and  _19
REMARK    6  A    between atoms: _19  and  _20
REMARK    7  A    between atoms: _19  and  _22
REMARK    8  A    between atoms: _22  and  _23
REMARK    9  A    between atoms: _28  and  _30
REMARK   10  A    between atoms: _30  and  _31
REMARK   11  A    between atoms: _30  and  _33
REMARK   12  A    between atoms: _33  and  _34
REMARK   13  A    between atoms: _34  and  _35
REMARK   14  A    between atoms: _35  and  _36
REMARK   15  A    between atoms: _45  and  _47
REMARK   16  A    between atoms: _47  and  _48
REMARK   17  A    between atoms: _47  and  _50
REMARK   18  A    between atoms: _50  and  _51
REMARK   19  A    between atoms: _56  and  _58
REMARK   20  A    between atoms: _58  and  _59
REMARK   21  A    between atoms: _58  and  _61
REMARK   22  A    between atoms: _61  and  _62
REMARK   23  A    between atoms: _62  and  _63
REMARK   24  A    between atoms: _68  and  _70
REMARK   25  A    between atoms: _70  and  _71
REMARK   26  A    between atoms: _70  and  _73
REMARK   27  A    between atoms: _73  and  _74
REMARK   28  A    between atoms: _74  and  _75
REMARK   29  A    between atoms: _75  and  _76
REMARK   30  A    between atoms: _85  and  _87
REMARK   31  A    between atoms: _87  and  _88
REMARK   32  A    between atoms: _87  and  _90
REMARK   33  A    between atoms: _90  and  _91
REMARK   34  A    between atoms: _94  and  _96
REMARK   35  A    between atoms: _96  and  _97
REMARK   36  A    between atoms: _96  and  _99
REMARK   37  A    between atoms: _99  and  _100
REMARK   38  A    between atoms: _105  and  _106
REMARK   39  A    between atoms: _108  and  _110
REMARK   40  A    between atoms: _110  and  _111
REMARK   41  A    between atoms: _110  and  _113
REMARK   42  A    between atoms: _113  and  _114
REMARK   43  A    between atoms: _115  and  _116
REMARK   44  A    between atoms: _125  and  _127
REMARK   45  A    between atoms: _127  and  _128
REMARK   46  A    between atoms: _127  and  _130
REMARK   47  A    between atoms: _130  and  _131
REMARK   48  A    between atoms: _137  and  _138
REMARK   49  A    between atoms: _143  and  _145
REMARK   50  A    between atoms: _145  and  _146
REMARK   51  A    between atoms: _145  and  _148
REMARK   52  A    between atoms: _148  and  _149
REMARK   53  A    between atoms: _152  and  _154
REMARK   54  A    between atoms: _154  and  _155
REMARK   55  A    between atoms: _158  and  _160
REMARK   56  A    between atoms: _160  and  _161
REMARK   57  A    between atoms: _160  and  _163
REMARK   58  A    between atoms: _163  and  _164
REMARK   59  A    between atoms: _167  and  _169
REMARK   60  A    between atoms: _169  and  _170
REMARK   61  A    between atoms: _169  and  _172
REMARK   62  A    between atoms: _172  and  _173
REMARK   63  A    between atoms: _176  and  _178
REMARK   64  A    between atoms: _178  and  _179
REMARK   65  A    between atoms: _182  and  _183
REMARK   66  A    between atoms: _188  and  _190
REMARK   67  A    between atoms: _190  and  _191
REMARK   68  A    between atoms: _190  and  _193
REMARK   69  A    between atoms: _193  and  _194
REMARK   70  A    between atoms: _204  and  _206
REMARK   71  A    between atoms: _206  and  _207
REMARK   72  A    between atoms: _206  and  _209
REMARK   73  A    between atoms: _211  and  _213
REMARK   74  A    between atoms: _213  and  _214
REMARK   75  A    between atoms: _213  and  _216
REMARK   76  A    between atoms: _216  and  _217
REMARK   77  A    between atoms: _223  and  _225
REMARK   78  A    between atoms: _225  and  _226
REMARK   79  A    between atoms: _225  and  _228
REMARK   80  A    between atoms: _228  and  _229
REMARK   81  A    between atoms: _229  and  _230
REMARK   82  A    between atoms: _230  and  _231
REMARK   83  A    between atoms: _240  and  _242
REMARK   84  A    between atoms: _242  and  _243
REMARK   85  A    between atoms: _242  and  _245
REMARK   86  A    between atoms: _245  and  _246
REMARK   87  A    between atoms: _256  and  _258
REMARK   88  A    between atoms: _258  and  _259
REMARK   89  A    between atoms: _258  and  _261
REMARK   90  A    between atoms: _261  and  _262
REMARK   91  A    between atoms: _262  and  _263
REMARK   92  A    between atoms: _266  and  _268
REMARK   93  A    between atoms: _268  and  _269
REMARK   94  A    between atoms: _268  and  _271
REMARK   95  A    between atoms: _271  and  _272
REMARK   96  A    between atoms: _277  and  _278
REMARK                            x       y       z     vdW  Elec       q    Type
REMARK                         _______ _______ _______ _____ _____    ______ ____
ROOT
ATOM      1  CA  TRP A   2       6.134  18.887   7.906  0.00  0.00    +0.153 C 
ENDROOT
BRANCH   1   2
ATOM      2  C   TRP A   2       6.962  19.996   8.546  0.00  0.00    +0.241 C 
ATOM      3  N   GLU A   3       7.140  19.939   9.812  0.00  0.00    -0.297 N 
ATOM      4  H   GLU A   3       6.672  19.159  10.316  0.00  0.00    +0.150 HD
ATOM      5  O   TRP A   2       7.378  20.937   7.847  0.00  0.00    -0.273 OA
BRANCH   3   6
ATOM      6  CA  GLU A   3       7.930  20.854  10.616  0.00  0.00    +0.149 C 
BRANCH   6   7
ATOM      7  C   GLU A   3       8.330  20.127  11.908  0.00  0.00    +0.241 C 
ATOM      8  N   TYR A   4       9.319  20.710  12.555  0.00  0.00    -0.298 N 
ATOM      9  H   TYR A   4       9.791  21.510  12.088  0.00  0.00    +0.150 HD
ATOM     10  O   GLU A   3       7.715  19.112  12.307  0.00  0.00    -0.273 OA
BRANCH   8  11
ATOM     11  CA  TYR A   4       9.788  20.334  13.833  0.00  0.00    +0.141 C 
BRANCH  11  12
ATOM     12  C   TYR A   4       8.672  20.758  14.821  0.00  0.00    +0.227 C 
ATOM     13  O   TYR A   4       7.877  21.614  14.411  0.00  0.00    -0.286 OA
ENDBRANCH  11  12
BRANCH  11  14
ATOM     14  CB  TYR A   4      11.103  21.051  14.228  0.00  0.00    +0.054 C 
BRANCH  14  15
ATOM     15  CG  TYR A   4      12.251  20.469  13.425  0.00  0.00    -0.020 A 
ATOM     16  CD2 TYR A   4      12.646  19.125  13.581  0.00  0.00    -0.001 A 
ATOM     17  CE2 TYR A   4      13.685  18.618  12.790  0.00  0.00    +0.036 A 
ATOM     18  CZ  TYR A   4      14.271  19.452  11.845  0.00  0.00    +0.134 A 
ATOM     19  CE1 TYR A   4      13.832  20.762  11.634  0.00  0.00    +0.036 A 
ATOM     20  CD1 TYR A   4      12.835  21.275  12.461  0.00  0.00    -0.001 A 
BRANCH  18  21
ATOM     21  OH  TYR A   4      15.225  19.042  10.961  0.00  0.00    -0.506 OA
ATOM     22  HH  TYR A   4      15.487  18.110  11.169  0.00  0.00    +0.292 HD
ENDBRANCH  18  21
ENDBRANCH  14  15
ENDBRANCH  11  14
ENDBRANCH   8  11
ENDBRANCH   6   7
BRANCH   6  23
ATOM     23  CB  GLU A   3       7.157  22.099  11.061  0.00  0.00    +0.041 C 
BRANCH  23  24
ATOM     24  CG  GLU A   3       6.348  22.976  10.113  0.00  0.00    +0.116 C 
BRANCH  24  25
ATOM     25  CD  GLU A   3       5.508  23.976  10.879  0.00  0.00    +0.365 C 
ATOM     26  OE2 GLU A   3       6.077  24.880  11.544  0.00  0.00    -0.246 OA
ATOM     27  OE1 GLU A   3       4.258  23.789  10.938  0.00  0.00    -0.246 OA
ENDBRANCH  24  25
ENDBRANCH  23  24
ENDBRANCH   6  23
ENDBRANCH   3   6
ENDBRANCH   1   2
BRANCH   1  29
ATOM     28  C   ARG A   1       4.599  18.738   6.001  0.00  0.00    +0.238 C 
ATOM     29  N   TRP A   2       5.661  19.312   6.597  0.00  0.00    -0.297 N 
ATOM     30  H   TRP A   2       6.159  20.083   6.107  0.00  0.00    +0.150 HD
ATOM     31  O   ARG A   1       3.963  17.842   6.558  0.00  0.00    -0.274 OA
BRANCH  28  32
ATOM     32  CA  ARG A   1       4.215  19.188   4.634  0.00  0.00    +0.145 C 
BRANCH  32  33
ATOM     33  N   ARG A   1       4.013  20.646   4.545  0.00  0.00    -0.238 NA
ATOM     34  H   ARG A   1       4.620  21.163   3.877  0.00  0.00    +0.142 HD
ENDBRANCH  32  33
BRANCH  32  35
ATOM     35  CB  ARG A   1       5.301  18.803   3.586  0.00  0.00    +0.030 C 
BRANCH  35  36
ATOM     36  CG  ARG A   1       5.704  17.337   3.666  0.00  0.00    +0.045 C 
BRANCH  36  37
ATOM     37  CD  ARG A   1       6.034  16.741   2.352  0.00  0.00    +0.174 C 
BRANCH  37  38
ATOM     38  NE  ARG A   1       6.032  15.309   2.448  0.00  0.00    -0.265 N 
ATOM     39  HE  ARG A   1       6.850  14.858   2.905  0.00  0.00    +0.259 HD
ATOM     40  CZ  ARG A   1       5.058  14.508   1.994  0.00  0.00    +0.342 C 
ATOM     41  NH2 ARG A   1       5.215  13.159   1.948  0.00  0.00    -0.292 N 
ATOM     42 HH21 ARG A   1       6.105  12.728   2.269  0.00  0.00    +0.255 HD
ATOM     43 HH22 ARG A   1       4.445  12.558   1.592  0.00  0.00    +0.255 HD
ATOM     44  NH1 ARG A   1       3.930  15.077   1.608  0.00  0.00    -0.292 N 
ATOM     45 HH11 ARG A   1       3.823  16.110   1.663  0.00  0.00    +0.255 HD
ATOM     46 HH12 ARG A   1       3.149  14.492   1.249  0.00  0.00    +0.255 HD
ENDBRANCH  37  38
ENDBRANCH  36  37
ENDBRANCH  35  36
ENDBRANCH  32  35
ENDBRANCH  28  32
ENDBRANCH   1  29
BRANCH   1  47
ATOM     47  CB  TRP A   2       6.992  17.583   7.721  0.00  0.00    +0.057 C 
BRANCH  47  48
ATOM     48  CG  TRP A   2       8.368  17.937   7.147  0.00  0.00    -0.002 A 
ATOM     49  CD2 TRP A   2       9.530  18.201   7.936  0.00  0.00    +0.013 A 
ATOM     50  CE3 TRP A   2       9.774  18.147   9.316  0.00  0.00    +0.001 A 
ATOM     51  CZ3 TRP A   2      11.068  18.415   9.765  0.00  0.00    +0.000 A 
ATOM     52  CH2 TRP A   2      12.075  18.788   8.884  0.00  0.00    +0.001 A 
ATOM     53  CZ2 TRP A   2      11.848  18.839   7.524  0.00  0.00    +0.017 A 
ATOM     54  CE2 TRP A   2      10.545  18.584   7.060  0.00  0.00    +0.056 A 
ATOM     55  NE1 TRP A   2      10.064  18.560   5.815  0.00  0.00    -0.352 N 
ATOM     56  HE1 TRP A   2      10.587  18.823   4.955  0.00  0.00    +0.166 HD
ATOM     57  CD1 TRP A   2       8.738  18.122   5.863  0.00  0.00    +0.068 A 
ENDBRANCH  47  48
ENDBRANCH   1  47
TORSDOF 20
REMARK  Name = ../refined-set-2016/3kiv/3kiv_pocket.pdb
REMARK  96 active torsions:
REMARK  status: ('A' for Active; 'I' for Inactive)
REMARK    1  A    between atoms: _1  and  _3
REMARK    2  A    between atoms: _3  and  _4
REMARK    3  A    between atoms: _3  and  _6
REMARK    4  A    between atoms: _6  and  _7
REMARK    5  A    between atoms: _17  and  _19
REMARK    6  A    between atoms: _19  and  _20
REMARK    7  A    between atoms: _19  and  _22
REMARK    8  A    between atoms: _22  and  _23
REMARK    9  A    between atoms: _28  and  _30
REMARK   10  A    between atoms: _30  and  _31
REMARK   11  A    between atoms: _30  and  _33
REMARK   12  A    between atoms: _33  and  _34
REMARK   13  A    between atoms: _34  and  _35
REMARK   14  A    between atoms: _35  and  _36
REMARK   15  A    between atoms: _45  and  _47
REMARK   16  A    between atoms: _47  and  _48
REMARK   17  A    between atoms: _47  and  _50
REMARK   18  A    between atoms: _50  and  _51
REMARK   19  A    between atoms: _56  and  _58
REMARK   20  A    between atoms: _58  and  _59
REMARK   21  A    between atoms: _58  and  _61
REMARK   22  A    between atoms: _61  and  _62
REMARK   23  A    between atoms: _62  and  _63
REMARK   24  A    between atoms: _68  and  _70
REMARK   25  A    between atoms: _70  and  _71
REMARK   26  A    between atoms: _70  and  _73
REMARK   27  A    between atoms: _73  and  _74
REMARK   28  A    between atoms: _74  and  _75
REMARK   29  A    between atoms: _75  and  _76
REMARK   30  A    between atoms: _85  and  _87
REMARK   31  A    between atoms: _87  and  _88
REMARK   32  A    between atoms: _87  and  _90
REMARK   33  A    between atoms: _90  and  _91
REMARK   34  A    between atoms: _94  and  _96
REMARK   35  A    between atoms: _96  and  _97
REMARK   36  A    between atoms: _96  and  _99
REMARK   37  A    between atoms: _99  and  _100
REMARK   38  A    between atoms: _105  and  _106
REMARK   39  A    between atoms: _108  and  _110
REMARK   40  A    between atoms: _110  and  _111
REMARK   41  A    between atoms: _110  and  _113
REMARK   42  A    between atoms: _113  and  _114
REMARK   43  A    between atoms: _115  and  _116
REMARK   44  A    between atoms: _125  and  _127
REMARK   45  A    between atoms: _127  and  _128
REMARK   46  A    between atoms: _127  and  _130
REMARK   47  A    between atoms: _130  and  _131
REMARK   48  A    between atoms: _137  and  _138
REMARK   49  A    between atoms: _143  and  _145
REMARK   50  A    between atoms: _145  and  _146
REMARK   51  A    between atoms: _145  and  _148
REMARK   52  A    between atoms: _148  and  _149
REMARK   53  A    between atoms: _152  and  _154
REMARK   54  A    between atoms: _154  and  _155
REMARK   55  A    between atoms: _158  and  _160
REMARK   56  A    between atoms: _160  and  _161
REMARK   57  A    between atoms: _160  and  _163
REMARK   58  A    between atoms: _163  and  _164
REMARK   59  A    between atoms: _167  and  _169
REMARK   60  A    between atoms: _169  and  _170
REMARK   61  A    between atoms: _169  and  _172
REMARK   62  A    between atoms: _172  and  _173
REMARK   63  A    between atoms: _176  and  _178
REMARK   64  A    between atoms: _178  and  _179
REMARK   65  A    between atoms: _182  and  _183
REMARK   66  A    between atoms: _188  and  _190
REMARK   67  A    between atoms: _190  and  _191
REMARK   68  A    between atoms: _190  and  _193
REMARK   69  A    between atoms: _193  and  _194
REMARK   70  A    between atoms: _204  and  _206
REMARK   71  A    between atoms: _206  and  _207
REMARK   72  A    between atoms: _206  and  _209
REMARK   73  A    between atoms: _211  and  _213
REMARK   74  A    between atoms: _213  and  _214
REMARK   75  A    between atoms: _213  and  _216
REMARK   76  A    between atoms: _216  and  _217
REMARK   77  A    between atoms: _223  and  _225
REMARK   78  A    between atoms: _225  and  _226
REMARK   79  A    between atoms: _225  and  _228
REMARK   80  A    between atoms: _228  and  _229
REMARK   81  A    between atoms: _229  and  _230
REMARK   82  A    between atoms: _230  and  _231
REMARK   83  A    between atoms: _240  and  _242
REMARK   84  A    between atoms: _242  and  _243
REMARK   85  A    between atoms: _242  and  _245
REMARK   86  A    between atoms: _245  and  _246
REMARK   87  A    between atoms: _256  and  _258
REMARK   88  A    between atoms: _258  and  _259
REMARK   89  A    between atoms: _258  and  _261
REMARK   90  A    between atoms: _261  and  _262
REMARK   91  A    between atoms: _262  and  _263
REMARK   92  A    between atoms: _266  and  _268
REMARK   93  A    between atoms: _268  and  _269
REMARK   94  A    between atoms: _268  and  _271
REMARK   95  A    between atoms: _271  and  _272
REMARK   96  A    between atoms: _277  and  _278
REMARK                            x       y       z     vdW  Elec       q    Type
REMARK                         _______ _______ _______ _____ _____    ______ ____
ROOT
ATOM      1  O   HOH     1       3.519  12.957  -1.599  0.00  0.00    +0.000 OA
ENDROOT
TORSDOF 0
REMARK  Name = ../refined-set-2016/3kiv/3kiv_pocket.pdb
REMARK  96 active torsions:
REMARK  status: ('A' for Active; 'I' for Inactive)
REMARK    1  A    between atoms: _1  and  _3
REMARK    2  A    between atoms: _3  and  _4
REMARK    3  A    between atoms: _3  and  _6
REMARK    4  A    between atoms: _6  and  _7
REMARK    5  A    between atoms: _17  and  _19
REMARK    6  A    between atoms: _19  and  _20
REMARK    7  A    between atoms: _19  and  _22
REMARK    8  A    between atoms: _22  and  _23
REMARK    9  A    between atoms: _28  and  _30
REMARK   10  A    between atoms: _30  and  _31
REMARK   11  A    between atoms: _30  and  _33
REMARK   12  A    between atoms: _33  and  _34
REMARK   13  A    between atoms: _34  and  _35
REMARK   14  A    between atoms: _35  and  _36
REMARK   15  A    between atoms: _45  and  _47
REMARK   16  A    between atoms: _47  and  _48
REMARK   17  A    between atoms: _47  and  _50
REMARK   18  A    between atoms: _50  and  _51
REMARK   19  A    between atoms: _56  and  _58
REMARK   20  A    between atoms: _58  and  _59
REMARK   21  A    between atoms: _58  and  _61
REMARK   22  A    between atoms: _61  and  _62
REMARK   23  A    between atoms: _62  and  _63
REMARK   24  A    between atoms: _68  and  _70
REMARK   25  A    between atoms: _70  and  _71
REMARK   26  A    between atoms: _70  and  _73
REMARK   27  A    between atoms: _73  and  _74
REMARK   28  A    between atoms: _74  and  _75
REMARK   29  A    between atoms: _75  and  _76
REMARK   30  A    between atoms: _85  and  _87
REMARK   31  A    between atoms: _87  and  _88
REMARK   32  A    between atoms: _87  and  _90
REMARK   33  A    between atoms: _90  and  _91
REMARK   34  A    between atoms: _94  and  _96
REMARK   35  A    between atoms: _96  and  _97
REMARK   36  A    between atoms: _96  and  _99
REMARK   37  A    between atoms: _99  and  _100
REMARK   38  A    between atoms: _105  and  _106
REMARK   39  A    between atoms: _108  and  _110
REMARK   40  A    between atoms: _110  and  _111
REMARK   41  A    between atoms: _110  and  _113
REMARK   42  A    between atoms: _113  and  _114
REMARK   43  A    between atoms: _115  and  _116
REMARK   44  A    between atoms: _125  and  _127
REMARK   45  A    between atoms: _127  and  _128
REMARK   46  A    between atoms: _127  and  _130
REMARK   47  A    between atoms: _130  and  _131
REMARK   48  A    between atoms: _137  and  _138
REMARK   49  A    between atoms: _143  and  _145
REMARK   50  A    between atoms: _145  and  _146
REMARK   51  A    between atoms: _145  and  _148
REMARK   52  A    between atoms: _148  and  _149
REMARK   53  A    between atoms: _152  and  _154
REMARK   54  A    between atoms: _154  and  _155
REMARK   55  A    between atoms: _158  and  _160
REMARK   56  A    between atoms: _160  and  _161
REMARK   57  A    between atoms: _160  and  _163
REMARK   58  A    between atoms: _163  and  _164
REMARK   59  A    between atoms: _167  and  _169
REMARK   60  A    between atoms: _169  and  _170
REMARK   61  A    between atoms: _169  and  _172
REMARK   62  A    between atoms: _172  and  _173
REMARK   63  A    between atoms: _176  and  _178
REMARK   64  A    between atoms: _178  and  _179
REMARK   65  A    between atoms: _182  and  _183
REMARK   66  A    between atoms: _188  and  _190
REMARK   67  A    between atoms: _190  and  _191
REMARK   68  A    between atoms: _190  and  _193
REMARK   69  A    between atoms: _193  and  _194
REMARK   70  A    between atoms: _204  and  _206
REMARK   71  A    between atoms: _206  and  _207
REMARK   72  A    between atoms: _206  and  _209
REMARK   73  A    between atoms: _211  and  _213
REMARK   74  A    between atoms: _213  and  _214
REMARK   75  A    between atoms: _213  and  _216
REMARK   76  A    between atoms: _216  and  _217
REMARK   77  A    between atoms: _223  and  _225
REMARK   78  A    between atoms: _225  and  _226
REMARK   79  A    between atoms: _225  and  _228
REMARK   80  A    between atoms: _228  and  _229
REMARK   81  A    between atoms: _229  and  _230
REMARK   82  A    between atoms: _230  and  _231
REMARK   83  A    between atoms: _240  and  _242
REMARK   84  A    between atoms: _242  and  _243
REMARK   85  A    between atoms: _242  and  _245
REMARK   86  A    between atoms: _245  and  _246
REMARK   87  A    between atoms: _256  and  _258
REMARK   88  A    between atoms: _258  and  _259
REMARK   89  A    between atoms: _258  and  _261
REMARK   90  A    between atoms: _261  and  _262
REMARK   91  A    between atoms: _262  and  _263
REMARK   92  A    between atoms: _266  and  _268
REMARK   93  A    between atoms: _268  and  _269
REMARK   94  A    between atoms: _268  and  _271
REMARK   95  A    between atoms: _271  and  _272
REMARK   96  A    between atoms: _277  and  _278
REMARK                            x       y       z     vdW  Elec       q    Type
REMARK                         _______ _______ _______ _____ _____    ______ ____
ROOT
ATOM      1  O   HOH     1       8.228  13.807   0.369  0.00  0.00    +0.000 OA
ENDROOT
TORSDOF 0
REMARK  Name = ../refined-set-2016/3kiv/3kiv_pocket.pdb
REMARK  96 active torsions:
REMARK  status: ('A' for Active; 'I' for Inactive)
REMARK    1  A    between atoms: _1  and  _3
REMARK    2  A    between atoms: _3  and  _4
REMARK    3  A    between atoms: _3  and  _6
REMARK    4  A    between atoms: _6  and  _7
REMARK    5  A    between atoms: _17  and  _19
REMARK    6  A    between atoms: _19  and  _20
REMARK    7  A    between atoms: _19  and  _22
REMARK    8  A    between atoms: _22  and  _23
REMARK    9  A    between atoms: _28  and  _30
REMARK   10  A    between atoms: _30  and  _31
REMARK   11  A    between atoms: _30  and  _33
REMARK   12  A    between atoms: _33  and  _34
REMARK   13  A    between atoms: _34  and  _35
REMARK   14  A    between atoms: _35  and  _36
REMARK   15  A    between atoms: _45  and  _47
REMARK   16  A    between atoms: _47  and  _48
REMARK   17  A    between atoms: _47  and  _50
REMARK   18  A    between atoms: _50  and  _51
REMARK   19  A    between atoms: _56  and  _58
REMARK   20  A    between atoms: _58  and  _59
REMARK   21  A    between atoms: _58  and  _61
REMARK   22  A    between atoms: _61  and  _62
REMARK   23  A    between atoms: _62  and  _63
REMARK   24  A    between atoms: _68  and  _70
REMARK   25  A    between atoms: _70  and  _71
REMARK   26  A    between atoms: _70  and  _73
REMARK   27  A    between atoms: _73  and  _74
REMARK   28  A    between atoms: _74  and  _75
REMARK   29  A    between atoms: _75  and  _76
REMARK   30  A    between atoms: _85  and  _87
REMARK   31  A    between atoms: _87  and  _88
REMARK   32  A    between atoms: _87  and  _90
REMARK   33  A    between atoms: _90  and  _91
REMARK   34  A    between atoms: _94  and  _96
REMARK   35  A    between atoms: _96  and  _97
REMARK   36  A    between atoms: _96  and  _99
REMARK   37  A    between atoms: _99  and  _100
REMARK   38  A    between atoms: _105  and  _106
REMARK   39  A    between atoms: _108  and  _110
REMARK   40  A    between atoms: _110  and  _111
REMARK   41  A    between atoms: _110  and  _113
REMARK   42  A    between atoms: _113  and  _114
REMARK   43  A    between atoms: _115  and  _116
REMARK   44  A    between atoms: _125  and  _127
REMARK   45  A    between atoms: _127  and  _128
REMARK   46  A    between atoms: _127  and  _130
REMARK   47  A    between atoms: _130  and  _131
REMARK   48  A    between atoms: _137  and  _138
REMARK   49  A    between atoms: _143  and  _145
REMARK   50  A    between atoms: _145  and  _146
REMARK   51  A    between atoms: _145  and  _148
REMARK   52  A    between atoms: _148  and  _149
REMARK   53  A    between atoms: _152  and  _154
REMARK   54  A    between atoms: _154  and  _155
REMARK   55  A    between atoms: _158  and  _160
REMARK   56  A    between atoms: _160  and  _161
REMARK   57  A    between atoms: _160  and  _163
REMARK   58  A    between atoms: _163  and  _164
REMARK   59  A    between atoms: _167  and  _169
REMARK   60  A    between atoms: _169  and  _170
REMARK   61  A    between atoms: _169  and  _172
REMARK   62  A    between atoms: _172  and  _173
REMARK   63  A    between atoms: _176  and  _178
REMARK   64  A    between atoms: _178  and  _179
REMARK   65  A    between atoms: _182  and  _183
REMARK   66  A    between atoms: _188  and  _190
REMARK   67  A    between atoms: _190  and  _191
REMARK   68  A    between atoms: _190  and  _193
REMARK   69  A    between atoms: _193  and  _194
REMARK   70  A    between atoms: _204  and  _206
REMARK   71  A    between atoms: _206  and  _207
REMARK   72  A    between atoms: _206  and  _209
REMARK   73  A    between atoms: _211  and  _213
REMARK   74  A    between atoms: _213  and  _214
REMARK   75  A    between atoms: _213  and  _216
REMARK   76  A    between atoms: _216  and  _217
REMARK   77  A    between atoms: _223  and  _225
REMARK   78  A    between atoms: _225  and  _226
REMARK   79  A    between atoms: _225  and  _228
REMARK   80  A    between atoms: _228  and  _229
REMARK   81  A    between atoms: _229  and  _230
REMARK   82  A    between atoms: _230  and  _231
REMARK   83  A    between atoms: _240  and  _242
REMARK   84  A    between atoms: _242  and  _243
REMARK   85  A    between atoms: _242  and  _245
REMARK   86  A    between atoms: _245  and  _246
REMARK   87  A    between atoms: _256  and  _258
REMARK   88  A    between atoms: _258  and  _259
REMARK   89  A    between atoms: _258  and  _261
REMARK   90  A    between atoms: _261  and  _262
REMARK   91  A    between atoms: _262  and  _263
REMARK   92  A    between atoms: _266  and  _268
REMARK   93  A    between atoms: _268  and  _269
REMARK   94  A    between atoms: _268  and  _271
REMARK   95  A    between atoms: _271  and  _272
REMARK   96  A    between atoms: _277  and  _278
REMARK                            x       y       z     vdW  Elec       q    Type
REMARK                         _______ _______ _______ _____ _____    ______ ____
ROOT
ATOM      1  O   HOH     1      17.061   8.607   8.077  0.00  0.00    +0.000 OA
ENDROOT
TORSDOF 0
REMARK  Name = ../refined-set-2016/3kiv/3kiv_pocket.pdb
REMARK  96 active torsions:
REMARK  status: ('A' for Active; 'I' for Inactive)
REMARK    1  A    between atoms: _1  and  _3
REMARK    2  A    between atoms: _3  and  _4
REMARK    3  A    between atoms: _3  and  _6
REMARK    4  A    between atoms: _6  and  _7
REMARK    5  A    between atoms: _17  and  _19
REMARK    6  A    between atoms: _19  and  _20
REMARK    7  A    between atoms: _19  and  _22
REMARK    8  A    between atoms: _22  and  _23
REMARK    9  A    between atoms: _28  and  _30
REMARK   10  A    between atoms: _30  and  _31
REMARK   11  A    between atoms: _30  and  _33
REMARK   12  A    between atoms: _33  and  _34
REMARK   13  A    between atoms: _34  and  _35
REMARK   14  A    between atoms: _35  and  _36
REMARK   15  A    between atoms: _45  and  _47
REMARK   16  A    between atoms: _47  and  _48
REMARK   17  A    between atoms: _47  and  _50
REMARK   18  A    between atoms: _50  and  _51
REMARK   19  A    between atoms: _56  and  _58
REMARK   20  A    between atoms: _58  and  _59
REMARK   21  A    between atoms: _58  and  _61
REMARK   22  A    between atoms: _61  and  _62
REMARK   23  A    between atoms: _62  and  _63
REMARK   24  A    between atoms: _68  and  _70
REMARK   25  A    between atoms: _70  and  _71
REMARK   26  A    between atoms: _70  and  _73
REMARK   27  A    between atoms: _73  and  _74
REMARK   28  A    between atoms: _74  and  _75
REMARK   29  A    between atoms: _75  and  _76
REMARK   30  A    between atoms: _85  and  _87
REMARK   31  A    between atoms: _87  and  _88
REMARK   32  A    between atoms: _87  and  _90
REMARK   33  A    between atoms: _90  and  _91
REMARK   34  A    between atoms: _94  and  _96
REMARK   35  A    between atoms: _96  and  _97
REMARK   36  A    between atoms: _96  and  _99
REMARK   37  A    between atoms: _99  and  _100
REMARK   38  A    between atoms: _105  and  _106
REMARK   39  A    between atoms: _108  and  _110
REMARK   40  A    between atoms: _110  and  _111
REMARK   41  A    between atoms: _110  and  _113
REMARK   42  A    between atoms: _113  and  _114
REMARK   43  A    between atoms: _115  and  _116
REMARK   44  A    between atoms: _125  and  _127
REMARK   45  A    between atoms: _127  and  _128
REMARK   46  A    between atoms: _127  and  _130
REMARK   47  A    between atoms: _130  and  _131
REMARK   48  A    between atoms: _137  and  _138
REMARK   49  A    between atoms: _143  and  _145
REMARK   50  A    between atoms: _145  and  _146
REMARK   51  A    between atoms: _145  and  _148
REMARK   52  A    between atoms: _148  and  _149
REMARK   53  A    between atoms: _152  and  _154
REMARK   54  A    between atoms: _154  and  _155
REMARK   55  A    between atoms: _158  and  _160
REMARK   56  A    between atoms: _160  and  _161
REMARK   57  A    between atoms: _160  and  _163
REMARK   58  A    between atoms: _163  and  _164
REMARK   59  A    between atoms: _167  and  _169
REMARK   60  A    between atoms: _169  and  _170
REMARK   61  A    between atoms: _169  and  _172
REMARK   62  A    between atoms: _172  and  _173
REMARK   63  A    between atoms: _176  and  _178
REMARK   64  A    between atoms: _178  and  _179
REMARK   65  A    between atoms: _182  and  _183
REMARK   66  A    between atoms: _188  and  _190
REMARK   67  A    between atoms: _190  and  _191
REMARK   68  A    between atoms: _190  and  _193
REMARK   69  A    between atoms: _193  and  _194
REMARK   70  A    between atoms: _204  and  _206
REMARK   71  A    between atoms: _206  and  _207
REMARK   72  A    between atoms: _206  and  _209
REMARK   73  A    between atoms: _211  and  _213
REMARK   74  A    between atoms: _213  and  _214
REMARK   75  A    between atoms: _213  and  _216
REMARK   76  A    between atoms: _216  and  _217
REMARK   77  A    between atoms: _223  and  _225
REMARK   78  A    between atoms: _225  and  _226
REMARK   79  A    between atoms: _225  and  _228
REMARK   80  A    between atoms: _228  and  _229
REMARK   81  A    between atoms: _229  and  _230
REMARK   82  A    between atoms: _230  and  _231
REMARK   83  A    between atoms: _240  and  _242
REMARK   84  A    between atoms: _242  and  _243
REMARK   85  A    between atoms: _242  and  _245
REMARK   86  A    between atoms: _245  and  _246
REMARK   87  A    between atoms: _256  and  _258
REMARK   88  A    between atoms: _258  and  _259
REMARK   89  A    between atoms: _258  and  _261
REMARK   90  A    between atoms: _261  and  _262
REMARK   91  A    between atoms: _262  and  _263
REMARK   92  A    between atoms: _266  and  _268
REMARK   93  A    between atoms: _268  and  _269
REMARK   94  A    between atoms: _268  and  _271
REMARK   95  A    between atoms: _271  and  _272
REMARK   96  A    between atoms: _277  and  _278
REMARK                            x       y       z     vdW  Elec       q    Type
REMARK                         _______ _______ _______ _____ _____    ______ ____
ROOT
ATOM      1  O   HOH     1       6.817   9.017   3.106  0.00  0.00    +0.000 OA
ENDROOT
TORSDOF 0
REMARK  Name = ../refined-set-2016/3kiv/3kiv_pocket.pdb
REMARK  96 active torsions:
REMARK  status: ('A' for Active; 'I' for Inactive)
REMARK    1  A    between atoms: _1  and  _3
REMARK    2  A    between atoms: _3  and  _4
REMARK    3  A    between atoms: _3  and  _6
REMARK    4  A    between atoms: _6  and  _7
REMARK    5  A    between atoms: _17  and  _19
REMARK    6  A    between atoms: _19  and  _20
REMARK    7  A    between atoms: _19  and  _22
REMARK    8  A    between atoms: _22  and  _23
REMARK    9  A    between atoms: _28  and  _30
REMARK   10  A    between atoms: _30  and  _31
REMARK   11  A    between atoms: _30  and  _33
REMARK   12  A    between atoms: _33  and  _34
REMARK   13  A    between atoms: _34  and  _35
REMARK   14  A    between atoms: _35  and  _36
REMARK   15  A    between atoms: _45  and  _47
REMARK   16  A    between atoms: _47  and  _48
REMARK   17  A    between atoms: _47  and  _50
REMARK   18  A    between atoms: _50  and  _51
REMARK   19  A    between atoms: _56  and  _58
REMARK   20  A    between atoms: _58  and  _59
REMARK   21  A    between atoms: _58  and  _61
REMARK   22  A    between atoms: _61  and  _62
REMARK   23  A    between atoms: _62  and  _63
REMARK   24  A    between atoms: _68  and  _70
REMARK   25  A    between atoms: _70  and  _71
REMARK   26  A    between atoms: _70  and  _73
REMARK   27  A    between atoms: _73  and  _74
REMARK   28  A    between atoms: _74  and  _75
REMARK   29  A    between atoms: _75  and  _76
REMARK   30  A    between atoms: _85  and  _87
REMARK   31  A    between atoms: _87  and  _88
REMARK   32  A    between atoms: _87  and  _90
REMARK   33  A    between atoms: _90  and  _91
REMARK   34  A    between atoms: _94  and  _96
REMARK   35  A    between atoms: _96  and  _97
REMARK   36  A    between atoms: _96  and  _99
REMARK   37  A    between atoms: _99  and  _100
REMARK   38  A    between atoms: _105  and  _106
REMARK   39  A    between atoms: _108  and  _110
REMARK   40  A    between atoms: _110  and  _111
REMARK   41  A    between atoms: _110  and  _113
REMARK   42  A    between atoms: _113  and  _114
REMARK   43  A    between atoms: _115  and  _116
REMARK   44  A    between atoms: _125  and  _127
REMARK   45  A    between atoms: _127  and  _128
REMARK   46  A    between atoms: _127  and  _130
REMARK   47  A    between atoms: _130  and  _131
REMARK   48  A    between atoms: _137  and  _138
REMARK   49  A    between atoms: _143  and  _145
REMARK   50  A    between atoms: _145  and  _146
REMARK   51  A    between atoms: _145  and  _148
REMARK   52  A    between atoms: _148  and  _149
REMARK   53  A    between atoms: _152  and  _154
REMARK   54  A    between atoms: _154  and  _155
REMARK   55  A    between atoms: _158  and  _160
REMARK   56  A    between atoms: _160  and  _161
REMARK   57  A    between atoms: _160  and  _163
REMARK   58  A    between atoms: _163  and  _164
REMARK   59  A    between atoms: _167  and  _169
REMARK   60  A    between atoms: _169  and  _170
REMARK   61  A    between atoms: _169  and  _172
REMARK   62  A    between atoms: _172  and  _173
REMARK   63  A    between atoms: _176  and  _178
REMARK   64  A    between atoms: _178  and  _179
REMARK   65  A    between atoms: _182  and  _183
REMARK   66  A    between atoms: _188  and  _190
REMARK   67  A    between atoms: _190  and  _191
REMARK   68  A    between atoms: _190  and  _193
REMARK   69  A    between atoms: _193  and  _194
REMARK   70  A    between atoms: _204  and  _206
REMARK   71  A    between atoms: _206  and  _207
REMARK   72  A    between atoms: _206  and  _209
REMARK   73  A    between atoms: _211  and  _213
REMARK   74  A    between atoms: _213  and  _214
REMARK   75  A    between atoms: _213  and  _216
REMARK   76  A    between atoms: _216  and  _217
REMARK   77  A    between atoms: _223  and  _225
REMARK   78  A    between atoms: _225  and  _226
REMARK   79  A    between atoms: _225  and  _228
REMARK   80  A    between atoms: _228  and  _229
REMARK   81  A    between atoms: _229  and  _230
REMARK   82  A    between atoms: _230  and  _231
REMARK   83  A    between atoms: _240  and  _242
REMARK   84  A    between atoms: _242  and  _243
REMARK   85  A    between atoms: _242  and  _245
REMARK   86  A    between atoms: _245  and  _246
REMARK   87  A    between atoms: _256  and  _258
REMARK   88  A    between atoms: _258  and  _259
REMARK   89  A    between atoms: _258  and  _261
REMARK   90  A    between atoms: _261  and  _262
REMARK   91  A    between atoms: _262  and  _263
REMARK   92  A    between atoms: _266  and  _268
REMARK   93  A    between atoms: _268  and  _269
REMARK   94  A    between atoms: _268  and  _271
REMARK   95  A    between atoms: _271  and  _272
REMARK   96  A    between atoms: _277  and  _278
REMARK                            x       y       z     vdW  Elec       q    Type
REMARK                         _______ _______ _______ _____ _____    ______ ____
ROOT
ATOM      1  O   HOH     1      10.285   7.104   8.235  0.00  0.00    +0.000 OA
ENDROOT
TORSDOF 0
REMARK  Name = ../refined-set-2016/3kiv/3kiv_pocket.pdb
REMARK  96 active torsions:
REMARK  status: ('A' for Active; 'I' for Inactive)
REMARK    1  A    between atoms: _1  and  _3
REMARK    2  A    between atoms: _3  and  _4
REMARK    3  A    between atoms: _3  and  _6
REMARK    4  A    between atoms: _6  and  _7
REMARK    5  A    between atoms: _17  and  _19
REMARK    6  A    between atoms: _19  and  _20
REMARK    7  A    between atoms: _19  and  _22
REMARK    8  A    between atoms: _22  and  _23
REMARK    9  A    between atoms: _28  and  _30
REMARK   10  A    between atoms: _30  and  _31
REMARK   11  A    between atoms: _30  and  _33
REMARK   12  A    between atoms: _33  and  _34
REMARK   13  A    between atoms: _34  and  _35
REMARK   14  A    between atoms: _35  and  _36
REMARK   15  A    between atoms: _45  and  _47
REMARK   16  A    between atoms: _47  and  _48
REMARK   17  A    between atoms: _47  and  _50
REMARK   18  A    between atoms: _50  and  _51
REMARK   19  A    between atoms: _56  and  _58
REMARK   20  A    between atoms: _58  and  _59
REMARK   21  A    between atoms: _58  and  _61
REMARK   22  A    between atoms: _61  and  _62
REMARK   23  A    between atoms: _62  and  _63
REMARK   24  A    between atoms: _68  and  _70
REMARK   25  A    between atoms: _70  and  _71
REMARK   26  A    between atoms: _70  and  _73
REMARK   27  A    between atoms: _73  and  _74
REMARK   28  A    between atoms: _74  and  _75
REMARK   29  A    between atoms: _75  and  _76
REMARK   30  A    between atoms: _85  and  _87
REMARK   31  A    between atoms: _87  and  _88
REMARK   32  A    between atoms: _87  and  _90
REMARK   33  A    between atoms: _90  and  _91
REMARK   34  A    between atoms: _94  and  _96
REMARK   35  A    between atoms: _96  and  _97
REMARK   36  A    between atoms: _96  and  _99
REMARK   37  A    between atoms: _99  and  _100
REMARK   38  A    between atoms: _105  and  _106
REMARK   39  A    between atoms: _108  and  _110
REMARK   40  A    between atoms: _110  and  _111
REMARK   41  A    between atoms: _110  and  _113
REMARK   42  A    between atoms: _113  and  _114
REMARK   43  A    between atoms: _115  and  _116
REMARK   44  A    between atoms: _125  and  _127
REMARK   45  A    between atoms: _127  and  _128
REMARK   46  A    between atoms: _127  and  _130
REMARK   47  A    between atoms: _130  and  _131
REMARK   48  A    between atoms: _137  and  _138
REMARK   49  A    between atoms: _143  and  _145
REMARK   50  A    between atoms: _145  and  _146
REMARK   51  A    between atoms: _145  and  _148
REMARK   52  A    between atoms: _148  and  _149
REMARK   53  A    between atoms: _152  and  _154
REMARK   54  A    between atoms: _154  and  _155
REMARK   55  A    between atoms: _158  and  _160
REMARK   56  A    between atoms: _160  and  _161
REMARK   57  A    between atoms: _160  and  _163
REMARK   58  A    between atoms: _163  and  _164
REMARK   59  A    between atoms: _167  and  _169
REMARK   60  A    between atoms: _169  and  _170
REMARK   61  A    between atoms: _169  and  _172
REMARK   62  A    between atoms: _172  and  _173
REMARK   63  A    between atoms: _176  and  _178
REMARK   64  A    between atoms: _178  and  _179
REMARK   65  A    between atoms: _182  and  _183
REMARK   66  A    between atoms: _188  and  _190
REMARK   67  A    between atoms: _190  and  _191
REMARK   68  A    between atoms: _190  and  _193
REMARK   69  A    between atoms: _193  and  _194
REMARK   70  A    between atoms: _204  and  _206
REMARK   71  A    between atoms: _206  and  _207
REMARK   72  A    between atoms: _206  and  _209
REMARK   73  A    between atoms: _211  and  _213
REMARK   74  A    between atoms: _213  and  _214
REMARK   75  A    between atoms: _213  and  _216
REMARK   76  A    between atoms: _216  and  _217
REMARK   77  A    between atoms: _223  and  _225
REMARK   78  A    between atoms: _225  and  _226
REMARK   79  A    between atoms: _225  and  _228
REMARK   80  A    between atoms: _228  and  _229
REMARK   81  A    between atoms: _229  and  _230
REMARK   82  A    between atoms: _230  and  _231
REMARK   83  A    between atoms: _240  and  _242
REMARK   84  A    between atoms: _242  and  _243
REMARK   85  A    between atoms: _242  and  _245
REMARK   86  A    between atoms: _245  and  _246
REMARK   87  A    between atoms: _256  and  _258
REMARK   88  A    between atoms: _258  and  _259
REMARK   89  A    between atoms: _258  and  _261
REMARK   90  A    between atoms: _261  and  _262
REMARK   91  A    between atoms: _262  and  _263
REMARK   92  A    between atoms: _266  and  _268
REMARK   93  A    between atoms: _268  and  _269
REMARK   94  A    between atoms: _268  and  _271
REMARK   95  A    between atoms: _271  and  _272
REMARK   96  A    between atoms: _277  and  _278
REMARK                            x       y       z     vdW  Elec       q    Type
REMARK                         _______ _______ _______ _____ _____    ______ ____
ROOT
ATOM      1  O   HOH     1       9.596  17.404   2.090  0.00  0.00    +0.000 OA
ENDROOT
TORSDOF 0
REMARK  Name = ../refined-set-2016/3kiv/3kiv_pocket.pdb
REMARK  96 active torsions:
REMARK  status: ('A' for Active; 'I' for Inactive)
REMARK    1  A    between atoms: _1  and  _3
REMARK    2  A    between atoms: _3  and  _4
REMARK    3  A    between atoms: _3  and  _6
REMARK    4  A    between atoms: _6  and  _7
REMARK    5  A    between atoms: _17  and  _19
REMARK    6  A    between atoms: _19  and  _20
REMARK    7  A    between atoms: _19  and  _22
REMARK    8  A    between atoms: _22  and  _23
REMARK    9  A    between atoms: _28  and  _30
REMARK   10  A    between atoms: _30  and  _31
REMARK   11  A    between atoms: _30  and  _33
REMARK   12  A    between atoms: _33  and  _34
REMARK   13  A    between atoms: _34  and  _35
REMARK   14  A    between atoms: _35  and  _36
REMARK   15  A    between atoms: _45  and  _47
REMARK   16  A    between atoms: _47  and  _48
REMARK   17  A    between atoms: _47  and  _50
REMARK   18  A    between atoms: _50  and  _51
REMARK   19  A    between atoms: _56  and  _58
REMARK   20  A    between atoms: _58  and  _59
REMARK   21  A    between atoms: _58  and  _61
REMARK   22  A    between atoms: _61  and  _62
REMARK   23  A    between atoms: _62  and  _63
REMARK   24  A    between atoms: _68  and  _70
REMARK   25  A    between atoms: _70  and  _71
REMARK   26  A    between atoms: _70  and  _73
REMARK   27  A    between atoms: _73  and  _74
REMARK   28  A    between atoms: _74  and  _75
REMARK   29  A    between atoms: _75  and  _76
REMARK   30  A    between atoms: _85  and  _87
REMARK   31  A    between atoms: _87  and  _88
REMARK   32  A    between atoms: _87  and  _90
REMARK   33  A    between atoms: _90  and  _91
REMARK   34  A    between atoms: _94  and  _96
REMARK   35  A    between atoms: _96  and  _97
REMARK   36  A    between atoms: _96  and  _99
REMARK   37  A    between atoms: _99  and  _100
REMARK   38  A    between atoms: _105  and  _106
REMARK   39  A    between atoms: _108  and  _110
REMARK   40  A    between atoms: _110  and  _111
REMARK   41  A    between atoms: _110  and  _113
REMARK   42  A    between atoms: _113  and  _114
REMARK   43  A    between atoms: _115  and  _116
REMARK   44  A    between atoms: _125  and  _127
REMARK   45  A    between atoms: _127  and  _128
REMARK   46  A    between atoms: _127  and  _130
REMARK   47  A    between atoms: _130  and  _131
REMARK   48  A    between atoms: _137  and  _138
REMARK   49  A    between atoms: _143  and  _145
REMARK   50  A    between atoms: _145  and  _146
REMARK   51  A    between atoms: _145  and  _148
REMARK   52  A    between atoms: _148  and  _149
REMARK   53  A    between atoms: _152  and  _154
REMARK   54  A    between atoms: _154  and  _155
REMARK   55  A    between atoms: _158  and  _160
REMARK   56  A    between atoms: _160  and  _161
REMARK   57  A    between atoms: _160  and  _163
REMARK   58  A    between atoms: _163  and  _164
REMARK   59  A    between atoms: _167  and  _169
REMARK   60  A    between atoms: _169  and  _170
REMARK   61  A    between atoms: _169  and  _172
REMARK   62  A    between atoms: _172  and  _173
REMARK   63  A    between atoms: _176  and  _178
REMARK   64  A    between atoms: _178  and  _179
REMARK   65  A    between atoms: _182  and  _183
REMARK   66  A    between atoms: _188  and  _190
REMARK   67  A    between atoms: _190  and  _191
REMARK   68  A    between atoms: _190  and  _193
REMARK   69  A    between atoms: _193  and  _194
REMARK   70  A    between atoms: _204  and  _206
REMARK   71  A    between atoms: _206  and  _207
REMARK   72  A    between atoms: _206  and  _209
REMARK   73  A    between atoms: _211  and  _213
REMARK   74  A    between atoms: _213  and  _214
REMARK   75  A    between atoms: _213  and  _216
REMARK   76  A    between atoms: _216  and  _217
REMARK   77  A    between atoms: _223  and  _225
REMARK   78  A    between atoms: _225  and  _226
REMARK   79  A    between atoms: _225  and  _228
REMARK   80  A    between atoms: _228  and  _229
REMARK   81  A    between atoms: _229  and  _230
REMARK   82  A    between atoms: _230  and  _231
REMARK   83  A    between atoms: _240  and  _242
REMARK   84  A    between atoms: _242  and  _243
REMARK   85  A    between atoms: _242  and  _245
REMARK   86  A    between atoms: _245  and  _246
REMARK   87  A    between atoms: _256  and  _258
REMARK   88  A    between atoms: _258  and  _259
REMARK   89  A    between atoms: _258  and  _261
REMARK   90  A    between atoms: _261  and  _262
REMARK   91  A    between atoms: _262  and  _263
REMARK   92  A    between atoms: _266  and  _268
REMARK   93  A    between atoms: _268  and  _269
REMARK   94  A    between atoms: _268  and  _271
REMARK   95  A    between atoms: _271  and  _272
REMARK   96  A    between atoms: _277  and  _278
REMARK                            x       y       z     vdW  Elec       q    Type
REMARK                         _______ _______ _______ _____ _____    ______ ____
ROOT
ATOM      1  O   HOH     1      10.492  21.519   9.012  0.00  0.00    +0.000 OA
ENDROOT
TORSDOF 0
REMARK  Name = ../refined-set-2016/3kiv/3kiv_pocket.pdb
REMARK  96 active torsions:
REMARK  status: ('A' for Active; 'I' for Inactive)
REMARK    1  A    between atoms: _1  and  _3
REMARK    2  A    between atoms: _3  and  _4
REMARK    3  A    between atoms: _3  and  _6
REMARK    4  A    between atoms: _6  and  _7
REMARK    5  A    between atoms: _17  and  _19
REMARK    6  A    between atoms: _19  and  _20
REMARK    7  A    between atoms: _19  and  _22
REMARK    8  A    between atoms: _22  and  _23
REMARK    9  A    between atoms: _28  and  _30
REMARK   10  A    between atoms: _30  and  _31
REMARK   11  A    between atoms: _30  and  _33
REMARK   12  A    between atoms: _33  and  _34
REMARK   13  A    between atoms: _34  and  _35
REMARK   14  A    between atoms: _35  and  _36
REMARK   15  A    between atoms: _45  and  _47
REMARK   16  A    between atoms: _47  and  _48
REMARK   17  A    between atoms: _47  and  _50
REMARK   18  A    between atoms: _50  and  _51
REMARK   19  A    between atoms: _56  and  _58
REMARK   20  A    between atoms: _58  and  _59
REMARK   21  A    between atoms: _58  and  _61
REMARK   22  A    between atoms: _61  and  _62
REMARK   23  A    between atoms: _62  and  _63
REMARK   24  A    between atoms: _68  and  _70
REMARK   25  A    between atoms: _70  and  _71
REMARK   26  A    between atoms: _70  and  _73
REMARK   27  A    between atoms: _73  and  _74
REMARK   28  A    between atoms: _74  and  _75
REMARK   29  A    between atoms: _75  and  _76
REMARK   30  A    between atoms: _85  and  _87
REMARK   31  A    between atoms: _87  and  _88
REMARK   32  A    between atoms: _87  and  _90
REMARK   33  A    between atoms: _90  and  _91
REMARK   34  A    between atoms: _94  and  _96
REMARK   35  A    between atoms: _96  and  _97
REMARK   36  A    between atoms: _96  and  _99
REMARK   37  A    between atoms: _99  and  _100
REMARK   38  A    between atoms: _105  and  _106
REMARK   39  A    between atoms: _108  and  _110
REMARK   40  A    between atoms: _110  and  _111
REMARK   41  A    between atoms: _110  and  _113
REMARK   42  A    between atoms: _113  and  _114
REMARK   43  A    between atoms: _115  and  _116
REMARK   44  A    between atoms: _125  and  _127
REMARK   45  A    between atoms: _127  and  _128
REMARK   46  A    between atoms: _127  and  _130
REMARK   47  A    between atoms: _130  and  _131
REMARK   48  A    between atoms: _137  and  _138
REMARK   49  A    between atoms: _143  and  _145
REMARK   50  A    between atoms: _145  and  _146
REMARK   51  A    between atoms: _145  and  _148
REMARK   52  A    between atoms: _148  and  _149
REMARK   53  A    between atoms: _152  and  _154
REMARK   54  A    between atoms: _154  and  _155
REMARK   55  A    between atoms: _158  and  _160
REMARK   56  A    between atoms: _160  and  _161
REMARK   57  A    between atoms: _160  and  _163
REMARK   58  A    between atoms: _163  and  _164
REMARK   59  A    between atoms: _167  and  _169
REMARK   60  A    between atoms: _169  and  _170
REMARK   61  A    between atoms: _169  and  _172
REMARK   62  A    between atoms: _172  and  _173
REMARK   63  A    between atoms: _176  and  _178
REMARK   64  A    between atoms: _178  and  _179
REMARK   65  A    between atoms: _182  and  _183
REMARK   66  A    between atoms: _188  and  _190
REMARK   67  A    between atoms: _190  and  _191
REMARK   68  A    between atoms: _190  and  _193
REMARK   69  A    between atoms: _193  and  _194
REMARK   70  A    between atoms: _204  and  _206
REMARK   71  A    between atoms: _206  and  _207
REMARK   72  A    between atoms: _206  and  _209
REMARK   73  A    between atoms: _211  and  _213
REMARK   74  A    between atoms: _213  and  _214
REMARK   75  A    between atoms: _213  and  _216
REMARK   76  A    between atoms: _216  and  _217
REMARK   77  A    between atoms: _223  and  _225
REMARK   78  A    between atoms: _225  and  _226
REMARK   79  A    between atoms: _225  and  _228
REMARK   80  A    between atoms: _228  and  _229
REMARK   81  A    between atoms: _229  and  _230
REMARK   82  A    between atoms: _230  and  _231
REMARK   83  A    between atoms: _240  and  _242
REMARK   84  A    between atoms: _242  and  _243
REMARK   85  A    between atoms: _242  and  _245
REMARK   86  A    between atoms: _245  and  _246
REMARK   87  A    between atoms: _256  and  _258
REMARK   88  A    between atoms: _258  and  _259
REMARK   89  A    between atoms: _258  and  _261
REMARK   90  A    between atoms: _261  and  _262
REMARK   91  A    between atoms: _262  and  _263
REMARK   92  A    between atoms: _266  and  _268
REMARK   93  A    between atoms: _268  and  _269
REMARK   94  A    between atoms: _268  and  _271
REMARK   95  A    between atoms: _271  and  _272
REMARK   96  A    between atoms: _277  and  _278
REMARK                            x       y       z     vdW  Elec       q    Type
REMARK                         _______ _______ _______ _____ _____    ______ ____
ROOT
ATOM      1  O   HOH     1       9.520  22.598   6.650  0.00  0.00    +0.000 OA
ENDROOT
TORSDOF 0
REMARK  Name = ../refined-set-2016/3kiv/3kiv_pocket.pdb
REMARK  96 active torsions:
REMARK  status: ('A' for Active; 'I' for Inactive)
REMARK    1  A    between atoms: _1  and  _3
REMARK    2  A    between atoms: _3  and  _4
REMARK    3  A    between atoms: _3  and  _6
REMARK    4  A    between atoms: _6  and  _7
REMARK    5  A    between atoms: _17  and  _19
REMARK    6  A    between atoms: _19  and  _20
REMARK    7  A    between atoms: _19  and  _22
REMARK    8  A    between atoms: _22  and  _23
REMARK    9  A    between atoms: _28  and  _30
REMARK   10  A    between atoms: _30  and  _31
REMARK   11  A    between atoms: _30  and  _33
REMARK   12  A    between atoms: _33  and  _34
REMARK   13  A    between atoms: _34  and  _35
REMARK   14  A    between atoms: _35  and  _36
REMARK   15  A    between atoms: _45  and  _47
REMARK   16  A    between atoms: _47  and  _48
REMARK   17  A    between atoms: _47  and  _50
REMARK   18  A    between atoms: _50  and  _51
REMARK   19  A    between atoms: _56  and  _58
REMARK   20  A    between atoms: _58  and  _59
REMARK   21  A    between atoms: _58  and  _61
REMARK   22  A    between atoms: _61  and  _62
REMARK   23  A    between atoms: _62  and  _63
REMARK   24  A    between atoms: _68  and  _70
REMARK   25  A    between atoms: _70  and  _71
REMARK   26  A    between atoms: _70  and  _73
REMARK   27  A    between atoms: _73  and  _74
REMARK   28  A    between atoms: _74  and  _75
REMARK   29  A    between atoms: _75  and  _76
REMARK   30  A    between atoms: _85  and  _87
REMARK   31  A    between atoms: _87  and  _88
REMARK   32  A    between atoms: _87  and  _90
REMARK   33  A    between atoms: _90  and  _91
REMARK   34  A    between atoms: _94  and  _96
REMARK   35  A    between atoms: _96  and  _97
REMARK   36  A    between atoms: _96  and  _99
REMARK   37  A    between atoms: _99  and  _100
REMARK   38  A    between atoms: _105  and  _106
REMARK   39  A    between atoms: _108  and  _110
REMARK   40  A    between atoms: _110  and  _111
REMARK   41  A    between atoms: _110  and  _113
REMARK   42  A    between atoms: _113  and  _114
REMARK   43  A    between atoms: _115  and  _116
REMARK   44  A    between atoms: _125  and  _127
REMARK   45  A    between atoms: _127  and  _128
REMARK   46  A    between atoms: _127  and  _130
REMARK   47  A    between atoms: _130  and  _131
REMARK   48  A    between atoms: _137  and  _138
REMARK   49  A    between atoms: _143  and  _145
REMARK   50  A    between atoms: _145  and  _146
REMARK   51  A    between atoms: _145  and  _148
REMARK   52  A    between atoms: _148  and  _149
REMARK   53  A    between atoms: _152  and  _154
REMARK   54  A    between atoms: _154  and  _155
REMARK   55  A    between atoms: _158  and  _160
REMARK   56  A    between atoms: _160  and  _161
REMARK   57  A    between atoms: _160  and  _163
REMARK   58  A    between atoms: _163  and  _164
REMARK   59  A    between atoms: _167  and  _169
REMARK   60  A    between atoms: _169  and  _170
REMARK   61  A    between atoms: _169  and  _172
REMARK   62  A    between atoms: _172  and  _173
REMARK   63  A    between atoms: _176  and  _178
REMARK   64  A    between atoms: _178  and  _179
REMARK   65  A    between atoms: _182  and  _183
REMARK   66  A    between atoms: _188  and  _190
REMARK   67  A    between atoms: _190  and  _191
REMARK   68  A    between atoms: _190  and  _193
REMARK   69  A    between atoms: _193  and  _194
REMARK   70  A    between atoms: _204  and  _206
REMARK   71  A    between atoms: _206  and  _207
REMARK   72  A    between atoms: _206  and  _209
REMARK   73  A    between atoms: _211  and  _213
REMARK   74  A    between atoms: _213  and  _214
REMARK   75  A    between atoms: _213  and  _216
REMARK   76  A    between atoms: _216  and  _217
REMARK   77  A    between atoms: _223  and  _225
REMARK   78  A    between atoms: _225  and  _226
REMARK   79  A    between atoms: _225  and  _228
REMARK   80  A    between atoms: _228  and  _229
REMARK   81  A    between atoms: _229  and  _230
REMARK   82  A    between atoms: _230  and  _231
REMARK   83  A    between atoms: _240  and  _242
REMARK   84  A    between atoms: _242  and  _243
REMARK   85  A    between atoms: _242  and  _245
REMARK   86  A    between atoms: _245  and  _246
REMARK   87  A    between atoms: _256  and  _258
REMARK   88  A    between atoms: _258  and  _259
REMARK   89  A    between atoms: _258  and  _261
REMARK   90  A    between atoms: _261  and  _262
REMARK   91  A    between atoms: _262  and  _263
REMARK   92  A    between atoms: _266  and  _268
REMARK   93  A    between atoms: _268  and  _269
REMARK   94  A    between atoms: _268  and  _271
REMARK   95  A    between atoms: _271  and  _272
REMARK   96  A    between atoms: _277  and  _278
REMARK                            x       y       z     vdW  Elec       q    Type
REMARK                         _______ _______ _______ _____ _____    ______ ____
ROOT
ATOM      1  O   HOH     1       9.676  21.202   3.433  0.00  0.00    +0.000 OA
ENDROOT
TORSDOF 0
REMARK  Name = ../refined-set-2016/3kiv/3kiv_pocket.pdb
REMARK  96 active torsions:
REMARK  status: ('A' for Active; 'I' for Inactive)
REMARK    1  A    between atoms: _1  and  _3
REMARK    2  A    between atoms: _3  and  _4
REMARK    3  A    between atoms: _3  and  _6
REMARK    4  A    between atoms: _6  and  _7
REMARK    5  A    between atoms: _17  and  _19
REMARK    6  A    between atoms: _19  and  _20
REMARK    7  A    between atoms: _19  and  _22
REMARK    8  A    between atoms: _22  and  _23
REMARK    9  A    between atoms: _28  and  _30
REMARK   10  A    between atoms: _30  and  _31
REMARK   11  A    between atoms: _30  and  _33
REMARK   12  A    between atoms: _33  and  _34
REMARK   13  A    between atoms: _34  and  _35
REMARK   14  A    between atoms: _35  and  _36
REMARK   15  A    between atoms: _45  and  _47
REMARK   16  A    between atoms: _47  and  _48
REMARK   17  A    between atoms: _47  and  _50
REMARK   18  A    between atoms: _50  and  _51
REMARK   19  A    between atoms: _56  and  _58
REMARK   20  A    between atoms: _58  and  _59
REMARK   21  A    between atoms: _58  and  _61
REMARK   22  A    between atoms: _61  and  _62
REMARK   23  A    between atoms: _62  and  _63
REMARK   24  A    between atoms: _68  and  _70
REMARK   25  A    between atoms: _70  and  _71
REMARK   26  A    between atoms: _70  and  _73
REMARK   27  A    between atoms: _73  and  _74
REMARK   28  A    between atoms: _74  and  _75
REMARK   29  A    between atoms: _75  and  _76
REMARK   30  A    between atoms: _85  and  _87
REMARK   31  A    between atoms: _87  and  _88
REMARK   32  A    between atoms: _87  and  _90
REMARK   33  A    between atoms: _90  and  _91
REMARK   34  A    between atoms: _94  and  _96
REMARK   35  A    between atoms: _96  and  _97
REMARK   36  A    between atoms: _96  and  _99
REMARK   37  A    between atoms: _99  and  _100
REMARK   38  A    between atoms: _105  and  _106
REMARK   39  A    between atoms: _108  and  _110
REMARK   40  A    between atoms: _110  and  _111
REMARK   41  A    between atoms: _110  and  _113
REMARK   42  A    between atoms: _113  and  _114
REMARK   43  A    between atoms: _115  and  _116
REMARK   44  A    between atoms: _125  and  _127
REMARK   45  A    between atoms: _127  and  _128
REMARK   46  A    between atoms: _127  and  _130
REMARK   47  A    between atoms: _130  and  _131
REMARK   48  A    between atoms: _137  and  _138
REMARK   49  A    between atoms: _143  and  _145
REMARK   50  A    between atoms: _145  and  _146
REMARK   51  A    between atoms: _145  and  _148
REMARK   52  A    between atoms: _148  and  _149
REMARK   53  A    between atoms: _152  and  _154
REMARK   54  A    between atoms: _154  and  _155
REMARK   55  A    between atoms: _158  and  _160
REMARK   56  A    between atoms: _160  and  _161
REMARK   57  A    between atoms: _160  and  _163
REMARK   58  A    between atoms: _163  and  _164
REMARK   59  A    between atoms: _167  and  _169
REMARK   60  A    between atoms: _169  and  _170
REMARK   61  A    between atoms: _169  and  _172
REMARK   62  A    between atoms: _172  and  _173
REMARK   63  A    between atoms: _176  and  _178
REMARK   64  A    between atoms: _178  and  _179
REMARK   65  A    between atoms: _182  and  _183
REMARK   66  A    between atoms: _188  and  _190
REMARK   67  A    between atoms: _190  and  _191
REMARK   68  A    between atoms: _190  and  _193
REMARK   69  A    between atoms: _193  and  _194
REMARK   70  A    between atoms: _204  and  _206
REMARK   71  A    between atoms: _206  and  _207
REMARK   72  A    between atoms: _206  and  _209
REMARK   73  A    between atoms: _211  and  _213
REMARK   74  A    between atoms: _213  and  _214
REMARK   75  A    between atoms: _213  and  _216
REMARK   76  A    between atoms: _216  and  _217
REMARK   77  A    between atoms: _223  and  _225
REMARK   78  A    between atoms: _225  and  _226
REMARK   79  A    between atoms: _225  and  _228
REMARK   80  A    between atoms: _228  and  _229
REMARK   81  A    between atoms: _229  and  _230
REMARK   82  A    between atoms: _230  and  _231
REMARK   83  A    between atoms: _240  and  _242
REMARK   84  A    between atoms: _242  and  _243
REMARK   85  A    between atoms: _242  and  _245
REMARK   86  A    between atoms: _245  and  _246
REMARK   87  A    between atoms: _256  and  _258
REMARK   88  A    between atoms: _258  and  _259
REMARK   89  A    between atoms: _258  and  _261
REMARK   90  A    between atoms: _261  and  _262
REMARK   91  A    between atoms: _262  and  _263
REMARK   92  A    between atoms: _266  and  _268
REMARK   93  A    between atoms: _268  and  _269
REMARK   94  A    between atoms: _268  and  _271
REMARK   95  A    between atoms: _271  and  _272
REMARK   96  A    between atoms: _277  and  _278
REMARK                            x       y       z     vdW  Elec       q    Type
REMARK                         _______ _______ _______ _____ _____    ______ ____
ROOT
ATOM      1  O   HOH     1      12.640   8.249   7.105  0.00  0.00    +0.000 OA
ENDROOT
TORSDOF 0
