REMARK  Name = ../refined-set-2016/3nu9/3nu9_pocket.pdb
REMARK  235 active torsions:
REMARK  status: ('A' for Active; 'I' for Inactive)
REMARK    1  A    between atoms: _1  and  _3
REMARK    2  A    between atoms: _3  and  _4
REMARK    3  A    between atoms: _3  and  _6
REMARK    4  A    between atoms: _6  and  _7
REMARK    5  A    between atoms: _7  and  _8
REMARK    6  A    between atoms: _8  and  _9
REMARK    7  A    between atoms: _18  and  _20
REMARK    8  A    between atoms: _20  and  _21
REMARK    9  A    between atoms: _20  and  _23
REMARK   10  A    between atoms: _23  and  _24
REMARK   11  A    between atoms: _27  and  _29
REMARK   12  A    between atoms: _29  and  _30
REMARK   13  A    between atoms: _29  and  _32
REMARK   14  A    between atoms: _32  and  _33
REMARK   15  A    between atoms: _36  and  _38
REMARK   16  A    between atoms: _38  and  _39
REMARK   17  A    between atoms: _38  and  _41
REMARK   18  A    between atoms: _41  and  _42
REMARK   19  A    between atoms: _45  and  _47
REMARK   20  A    between atoms: _47  and  _48
REMARK   21  A    between atoms: _47  and  _50
REMARK   22  A    between atoms: _50  and  _51
REMARK   23  A    between atoms: _54  and  _56
REMARK   24  A    between atoms: _56  and  _57
REMARK   25  A    between atoms: _59  and  _61
REMARK   26  A    between atoms: _61  and  _62
REMARK   27  A    between atoms: _65  and  _67
REMARK   28  A    between atoms: _67  and  _68
REMARK   29  A    between atoms: _67  and  _70
REMARK   30  A    between atoms: _70  and  _71
REMARK   31  A    between atoms: _74  and  _76
REMARK   32  A    between atoms: _76  and  _77
REMARK   33  A    between atoms: _76  and  _79
REMARK   34  A    between atoms: _79  and  _80
REMARK   35  A    between atoms: _83  and  _85
REMARK   36  A    between atoms: _85  and  _86
REMARK   37  A    between atoms: _85  and  _88
REMARK   38  A    between atoms: _88  and  _89
REMARK   39  A    between atoms: _92  and  _94
REMARK   40  A    between atoms: _94  and  _95
REMARK   41  A    between atoms: _94  and  _97
REMARK   42  A    between atoms: _100  and  _102
REMARK   43  A    between atoms: _102  and  _103
REMARK   44  A    between atoms: _102  and  _105
REMARK   45  A    between atoms: _105  and  _106
REMARK   46  A    between atoms: _109  and  _111
REMARK   47  A    between atoms: _111  and  _112
REMARK   48  A    between atoms: _111  and  _114
REMARK   49  A    between atoms: _114  and  _115
REMARK   50  A    between atoms: _115  and  _116
REMARK   51  A    between atoms: _116  and  _117
REMARK   52  A    between atoms: _117  and  _118
REMARK   53  A    between atoms: _122  and  _124
REMARK   54  A    between atoms: _124  and  _125
REMARK   55  A    between atoms: _124  and  _127
REMARK   56  A    between atoms: _127  and  _128
REMARK   57  A    between atoms: _128  and  _129
REMARK   58  A    between atoms: _131  and  _133
REMARK   59  A    between atoms: _133  and  _134
REMARK   60  A    between atoms: _133  and  _136
REMARK   61  A    between atoms: _136  and  _137
REMARK   62  A    between atoms: _140  and  _142
REMARK   63  A    between atoms: _142  and  _143
REMARK   64  A    between atoms: _145  and  _147
REMARK   65  A    between atoms: _147  and  _148
REMARK   66  A    between atoms: _150  and  _152
REMARK   67  A    between atoms: _152  and  _153
REMARK   68  A    between atoms: _152  and  _155
REMARK   69  A    between atoms: _155  and  _156
REMARK   70  A    between atoms: _159  and  _161
REMARK   71  A    between atoms: _161  and  _162
REMARK   72  A    between atoms: _164  and  _166
REMARK   73  A    between atoms: _166  and  _167
REMARK   74  A    between atoms: _169  and  _171
REMARK   75  A    between atoms: _171  and  _172
REMARK   76  A    between atoms: _171  and  _174
REMARK   77  A    between atoms: _174  and  _175
REMARK   78  A    between atoms: _181  and  _183
REMARK   79  A    between atoms: _183  and  _184
REMARK   80  A    between atoms: _183  and  _186
REMARK   81  A    between atoms: _186  and  _187
REMARK   82  A    between atoms: _190  and  _192
REMARK   83  A    between atoms: _192  and  _193
REMARK   84  A    between atoms: _192  and  _195
REMARK   85  A    between atoms: _198  and  _200
REMARK   86  A    between atoms: _200  and  _201
REMARK   87  A    between atoms: _200  and  _203
REMARK   88  A    between atoms: _203  and  _204
REMARK   89  A    between atoms: _208  and  _209
REMARK   90  A    between atoms: _214  and  _216
REMARK   91  A    between atoms: _216  and  _217
REMARK   92  A    between atoms: _216  and  _219
REMARK   93  A    between atoms: _219  and  _220
REMARK   94  A    between atoms: _224  and  _225
REMARK   95  A    between atoms: _230  and  _232
REMARK   96  A    between atoms: _232  and  _233
REMARK   97  A    between atoms: _232  and  _235
REMARK   98  A    between atoms: _238  and  _240
REMARK   99  A    between atoms: _240  and  _241
REMARK  100  A    between atoms: _240  and  _243
REMARK  101  A    between atoms: _243  and  _244
REMARK  102  A    between atoms: _249  and  _251
REMARK  103  A    between atoms: _251  and  _252
REMARK  104  A    between atoms: _251  and  _254
REMARK  105  A    between atoms: _257  and  _259
REMARK  106  A    between atoms: _259  and  _260
REMARK  107  A    between atoms: _259  and  _262
REMARK  108  A    between atoms: _262  and  _263
REMARK  109  A    between atoms: _266  and  _268
REMARK  110  A    between atoms: _268  and  _269
REMARK  111  A    between atoms: _271  and  _273
REMARK  112  A    between atoms: _273  and  _274
REMARK  113  A    between atoms: _273  and  _276
REMARK  114  A    between atoms: _276  and  _277
REMARK  115  A    between atoms: _277  and  _278
REMARK  116  A    between atoms: _278  and  _279
REMARK  117  A    between atoms: _288  and  _290
REMARK  118  A    between atoms: _290  and  _291
REMARK  119  A    between atoms: _290  and  _293
REMARK  120  A    between atoms: _293  and  _294
REMARK  121  A    between atoms: _299  and  _301
REMARK  122  A    between atoms: _301  and  _302
REMARK  123  A    between atoms: _301  and  _304
REMARK  124  A    between atoms: _304  and  _305
REMARK  125  A    between atoms: _305  and  _306
REMARK  126  A    between atoms: _306  and  _307
REMARK  127  A    between atoms: _316  and  _318
REMARK  128  A    between atoms: _318  and  _319
REMARK  129  A    between atoms: _318  and  _321
REMARK  130  A    between atoms: _321  and  _322
REMARK  131  A    between atoms: _325  and  _327
REMARK  132  A    between atoms: _327  and  _328
REMARK  133  A    between atoms: _327  and  _330
REMARK  134  A    between atoms: _330  and  _331
REMARK  135  A    between atoms: _334  and  _336
REMARK  136  A    between atoms: _336  and  _337
REMARK  137  A    between atoms: _336  and  _339
REMARK  138  A    between atoms: _339  and  _340
REMARK  139  A    between atoms: _343  and  _345
REMARK  140  A    between atoms: _345  and  _346
REMARK  141  A    between atoms: _345  and  _348
REMARK  142  A    between atoms: _348  and  _349
REMARK  143  A    between atoms: _352  and  _354
REMARK  144  A    between atoms: _354  and  _355
REMARK  145  A    between atoms: _357  and  _359
REMARK  146  A    between atoms: _359  and  _360
REMARK  147  A    between atoms: _363  and  _365
REMARK  148  A    between atoms: _365  and  _366
REMARK  149  A    between atoms: _365  and  _368
REMARK  150  A    between atoms: _368  and  _369
REMARK  151  A    between atoms: _372  and  _374
REMARK  152  A    between atoms: _374  and  _375
REMARK  153  A    between atoms: _374  and  _377
REMARK  154  A    between atoms: _377  and  _378
REMARK  155  A    between atoms: _381  and  _383
REMARK  156  A    between atoms: _383  and  _384
REMARK  157  A    between atoms: _383  and  _386
REMARK  158  A    between atoms: _386  and  _387
REMARK  159  A    between atoms: _390  and  _392
REMARK  160  A    between atoms: _392  and  _393
REMARK  161  A    between atoms: _392  and  _395
REMARK  162  A    between atoms: _398  and  _400
REMARK  163  A    between atoms: _400  and  _401
REMARK  164  A    between atoms: _400  and  _403
REMARK  165  A    between atoms: _403  and  _404
REMARK  166  A    between atoms: _407  and  _409
REMARK  167  A    between atoms: _409  and  _410
REMARK  168  A    between atoms: _409  and  _412
REMARK  169  A    between atoms: _412  and  _413
REMARK  170  A    between atoms: _413  and  _414
REMARK  171  A    between atoms: _414  and  _415
REMARK  172  A    between atoms: _415  and  _416
REMARK  173  A    between atoms: _420  and  _422
REMARK  174  A    between atoms: _422  and  _423
REMARK  175  A    between atoms: _422  and  _425
REMARK  176  A    between atoms: _425  and  _426
REMARK  177  A    between atoms: _426  and  _427
REMARK  178  A    between atoms: _429  and  _431
REMARK  179  A    between atoms: _431  and  _432
REMARK  180  A    between atoms: _431  and  _434
REMARK  181  A    between atoms: _434  and  _435
REMARK  182  A    between atoms: _438  and  _440
REMARK  183  A    between atoms: _440  and  _441
REMARK  184  A    between atoms: _443  and  _445
REMARK  185  A    between atoms: _445  and  _446
REMARK  186  A    between atoms: _448  and  _450
REMARK  187  A    between atoms: _450  and  _451
REMARK  188  A    between atoms: _450  and  _453
REMARK  189  A    between atoms: _453  and  _454
REMARK  190  A    between atoms: _457  and  _459
REMARK  191  A    between atoms: _459  and  _460
REMARK  192  A    between atoms: _462  and  _464
REMARK  193  A    between atoms: _464  and  _465
REMARK  194  A    between atoms: _467  and  _469
REMARK  195  A    between atoms: _469  and  _470
REMARK  196  A    between atoms: _469  and  _472
REMARK  197  A    between atoms: _472  and  _473
REMARK  198  A    between atoms: _476  and  _478
REMARK  199  A    between atoms: _478  and  _479
REMARK  200  A    between atoms: _478  and  _481
REMARK  201  A    between atoms: _484  and  _486
REMARK  202  A    between atoms: _486  and  _487
REMARK  203  A    between atoms: _486  and  _489
REMARK  204  A    between atoms: _489  and  _490
REMARK  205  A    between atoms: _493  and  _495
REMARK  206  A    between atoms: _495  and  _496
REMARK  207  A    between atoms: _495  and  _498
REMARK  208  A    between atoms: _498  and  _499
REMARK  209  A    between atoms: _503  and  _504
REMARK  210  A    between atoms: _509  and  _511
REMARK  211  A    between atoms: _511  and  _512
REMARK  212  A    between atoms: _511  and  _514
REMARK  213  A    between atoms: _517  and  _519
REMARK  214  A    between atoms: _519  and  _520
REMARK  215  A    between atoms: _519  and  _522
REMARK  216  A    between atoms: _522  and  _523
REMARK  217  A    between atoms: _528  and  _530
REMARK  218  A    between atoms: _530  and  _531
REMARK  219  A    between atoms: _530  and  _533
REMARK  220  A    between atoms: _536  and  _538
REMARK  221  A    between atoms: _538  and  _539
REMARK  222  A    between atoms: _538  and  _541
REMARK  223  A    between atoms: _541  and  _542
REMARK  224  A    between atoms: _545  and  _547
REMARK  225  A    between atoms: _547  and  _548
REMARK  226  A    between atoms: _550  and  _552
REMARK  227  A    between atoms: _552  and  _553
REMARK  228  A    between atoms: _552  and  _555
REMARK  229  A    between atoms: _555  and  _556
REMARK  230  A    between atoms: _556  and  _557
REMARK  231  A    between atoms: _557  and  _558
REMARK  232  A    between atoms: _567  and  _569
REMARK  233  A    between atoms: _569  and  _570
REMARK  234  A    between atoms: _569  and  _572
REMARK  235  A    between atoms: _572  and  _573
REMARK                            x       y       z     vdW  Elec       q    Type
REMARK                         _______ _______ _______ _____ _____    ______ ____
ROOT
ATOM      1  NE  ARG A   1      22.609  22.554  14.497  0.00  0.00    -0.265 N 
ATOM      2  HE  ARG A   1      23.105  23.123  15.213  0.00  0.00    +0.259 HD
ATOM      3  CZ  ARG A   1      21.533  23.087  13.910  0.00  0.00    +0.342 C 
ATOM      4  NH2 ARG A   1      21.127  24.298  14.248  0.00  0.00    -0.292 N 
ATOM      5 HH21 ARG A   1      21.645  24.837  14.971  0.00  0.00    +0.255 HD
ATOM      6 HH22 ARG A   1      20.290  24.712  13.791  0.00  0.00    +0.255 HD
ATOM      7  NH1 ARG A   1      20.842  22.411  12.996  0.00  0.00    -0.292 N 
ATOM      8 HH11 ARG A   1      21.136  21.451  12.727  0.00  0.00    +0.255 HD
ATOM      9 HH12 ARG A   1      20.007  22.843  12.551  0.00  0.00    +0.255 HD
ENDROOT
BRANCH   1  10
ATOM     10  CD  ARG A   1      23.136  21.218  14.196  0.00  0.00    +0.174 C 
BRANCH  10  11
ATOM     11  CG  ARG A   1      23.949  20.650  15.350  0.00  0.00    +0.045 C 
BRANCH  11  12
ATOM     12  CB  ARG A   1      24.646  19.368  14.944  0.00  0.00    +0.029 C 
BRANCH  12  13
ATOM     13  CA  ARG A   1      25.278  18.610  16.118  0.00  0.00    +0.133 C 
BRANCH  13  14
ATOM     14  N   ARG A   1      26.503  19.264  16.620  0.00  0.00    -0.239 NA
ATOM     15  H   ARG A   1      26.844  20.133  16.162  0.00  0.00    +0.142 HD
ENDBRANCH  13  14
BRANCH  13  16
ATOM     16  C   ARG A   1      25.566  17.159  15.709  0.00  0.00    +0.224 C 
ATOM     17  O   ARG A   1      26.569  16.903  15.062  0.00  0.00    -0.287 OA
ENDBRANCH  13  16
ENDBRANCH  12  13
ENDBRANCH  11  12
ENDBRANCH  10  11
ENDBRANCH   1  10
TORSDOF 6
REMARK  Name = ../refined-set-2016/3nu9/3nu9_pocket.pdb
REMARK  235 active torsions:
REMARK  status: ('A' for Active; 'I' for Inactive)
REMARK    1  A    between atoms: _1  and  _3
REMARK    2  A    between atoms: _3  and  _4
REMARK    3  A    between atoms: _3  and  _6
REMARK    4  A    between atoms: _6  and  _7
REMARK    5  A    between atoms: _7  and  _8
REMARK    6  A    between atoms: _8  and  _9
REMARK    7  A    between atoms: _18  and  _20
REMARK    8  A    between atoms: _20  and  _21
REMARK    9  A    between atoms: _20  and  _23
REMARK   10  A    between atoms: _23  and  _24
REMARK   11  A    between atoms: _27  and  _29
REMARK   12  A    between atoms: _29  and  _30
REMARK   13  A    between atoms: _29  and  _32
REMARK   14  A    between atoms: _32  and  _33
REMARK   15  A    between atoms: _36  and  _38
REMARK   16  A    between atoms: _38  and  _39
REMARK   17  A    between atoms: _38  and  _41
REMARK   18  A    between atoms: _41  and  _42
REMARK   19  A    between atoms: _45  and  _47
REMARK   20  A    between atoms: _47  and  _48
REMARK   21  A    between atoms: _47  and  _50
REMARK   22  A    between atoms: _50  and  _51
REMARK   23  A    between atoms: _54  and  _56
REMARK   24  A    between atoms: _56  and  _57
REMARK   25  A    between atoms: _59  and  _61
REMARK   26  A    between atoms: _61  and  _62
REMARK   27  A    between atoms: _65  and  _67
REMARK   28  A    between atoms: _67  and  _68
REMARK   29  A    between atoms: _67  and  _70
REMARK   30  A    between atoms: _70  and  _71
REMARK   31  A    between atoms: _74  and  _76
REMARK   32  A    between atoms: _76  and  _77
REMARK   33  A    between atoms: _76  and  _79
REMARK   34  A    between atoms: _79  and  _80
REMARK   35  A    between atoms: _83  and  _85
REMARK   36  A    between atoms: _85  and  _86
REMARK   37  A    between atoms: _85  and  _88
REMARK   38  A    between atoms: _88  and  _89
REMARK   39  A    between atoms: _92  and  _94
REMARK   40  A    between atoms: _94  and  _95
REMARK   41  A    between atoms: _94  and  _97
REMARK   42  A    between atoms: _100  and  _102
REMARK   43  A    between atoms: _102  and  _103
REMARK   44  A    between atoms: _102  and  _105
REMARK   45  A    between atoms: _105  and  _106
REMARK   46  A    between atoms: _109  and  _111
REMARK   47  A    between atoms: _111  and  _112
REMARK   48  A    between atoms: _111  and  _114
REMARK   49  A    between atoms: _114  and  _115
REMARK   50  A    between atoms: _115  and  _116
REMARK   51  A    between atoms: _116  and  _117
REMARK   52  A    between atoms: _117  and  _118
REMARK   53  A    between atoms: _122  and  _124
REMARK   54  A    between atoms: _124  and  _125
REMARK   55  A    between atoms: _124  and  _127
REMARK   56  A    between atoms: _127  and  _128
REMARK   57  A    between atoms: _128  and  _129
REMARK   58  A    between atoms: _131  and  _133
REMARK   59  A    between atoms: _133  and  _134
REMARK   60  A    between atoms: _133  and  _136
REMARK   61  A    between atoms: _136  and  _137
REMARK   62  A    between atoms: _140  and  _142
REMARK   63  A    between atoms: _142  and  _143
REMARK   64  A    between atoms: _145  and  _147
REMARK   65  A    between atoms: _147  and  _148
REMARK   66  A    between atoms: _150  and  _152
REMARK   67  A    between atoms: _152  and  _153
REMARK   68  A    between atoms: _152  and  _155
REMARK   69  A    between atoms: _155  and  _156
REMARK   70  A    between atoms: _159  and  _161
REMARK   71  A    between atoms: _161  and  _162
REMARK   72  A    between atoms: _164  and  _166
REMARK   73  A    between atoms: _166  and  _167
REMARK   74  A    between atoms: _169  and  _171
REMARK   75  A    between atoms: _171  and  _172
REMARK   76  A    between atoms: _171  and  _174
REMARK   77  A    between atoms: _174  and  _175
REMARK   78  A    between atoms: _181  and  _183
REMARK   79  A    between atoms: _183  and  _184
REMARK   80  A    between atoms: _183  and  _186
REMARK   81  A    between atoms: _186  and  _187
REMARK   82  A    between atoms: _190  and  _192
REMARK   83  A    between atoms: _192  and  _193
REMARK   84  A    between atoms: _192  and  _195
REMARK   85  A    between atoms: _198  and  _200
REMARK   86  A    between atoms: _200  and  _201
REMARK   87  A    between atoms: _200  and  _203
REMARK   88  A    between atoms: _203  and  _204
REMARK   89  A    between atoms: _208  and  _209
REMARK   90  A    between atoms: _214  and  _216
REMARK   91  A    between atoms: _216  and  _217
REMARK   92  A    between atoms: _216  and  _219
REMARK   93  A    between atoms: _219  and  _220
REMARK   94  A    between atoms: _224  and  _225
REMARK   95  A    between atoms: _230  and  _232
REMARK   96  A    between atoms: _232  and  _233
REMARK   97  A    between atoms: _232  and  _235
REMARK   98  A    between atoms: _238  and  _240
REMARK   99  A    between atoms: _240  and  _241
REMARK  100  A    between atoms: _240  and  _243
REMARK  101  A    between atoms: _243  and  _244
REMARK  102  A    between atoms: _249  and  _251
REMARK  103  A    between atoms: _251  and  _252
REMARK  104  A    between atoms: _251  and  _254
REMARK  105  A    between atoms: _257  and  _259
REMARK  106  A    between atoms: _259  and  _260
REMARK  107  A    between atoms: _259  and  _262
REMARK  108  A    between atoms: _262  and  _263
REMARK  109  A    between atoms: _266  and  _268
REMARK  110  A    between atoms: _268  and  _269
REMARK  111  A    between atoms: _271  and  _273
REMARK  112  A    between atoms: _273  and  _274
REMARK  113  A    between atoms: _273  and  _276
REMARK  114  A    between atoms: _276  and  _277
REMARK  115  A    between atoms: _277  and  _278
REMARK  116  A    between atoms: _278  and  _279
REMARK  117  A    between atoms: _288  and  _290
REMARK  118  A    between atoms: _290  and  _291
REMARK  119  A    between atoms: _290  and  _293
REMARK  120  A    between atoms: _293  and  _294
REMARK  121  A    between atoms: _299  and  _301
REMARK  122  A    between atoms: _301  and  _302
REMARK  123  A    between atoms: _301  and  _304
REMARK  124  A    between atoms: _304  and  _305
REMARK  125  A    between atoms: _305  and  _306
REMARK  126  A    between atoms: _306  and  _307
REMARK  127  A    between atoms: _316  and  _318
REMARK  128  A    between atoms: _318  and  _319
REMARK  129  A    between atoms: _318  and  _321
REMARK  130  A    between atoms: _321  and  _322
REMARK  131  A    between atoms: _325  and  _327
REMARK  132  A    between atoms: _327  and  _328
REMARK  133  A    between atoms: _327  and  _330
REMARK  134  A    between atoms: _330  and  _331
REMARK  135  A    between atoms: _334  and  _336
REMARK  136  A    between atoms: _336  and  _337
REMARK  137  A    between atoms: _336  and  _339
REMARK  138  A    between atoms: _339  and  _340
REMARK  139  A    between atoms: _343  and  _345
REMARK  140  A    between atoms: _345  and  _346
REMARK  141  A    between atoms: _345  and  _348
REMARK  142  A    between atoms: _348  and  _349
REMARK  143  A    between atoms: _352  and  _354
REMARK  144  A    between atoms: _354  and  _355
REMARK  145  A    between atoms: _357  and  _359
REMARK  146  A    between atoms: _359  and  _360
REMARK  147  A    between atoms: _363  and  _365
REMARK  148  A    between atoms: _365  and  _366
REMARK  149  A    between atoms: _365  and  _368
REMARK  150  A    between atoms: _368  and  _369
REMARK  151  A    between atoms: _372  and  _374
REMARK  152  A    between atoms: _374  and  _375
REMARK  153  A    between atoms: _374  and  _377
REMARK  154  A    between atoms: _377  and  _378
REMARK  155  A    between atoms: _381  and  _383
REMARK  156  A    between atoms: _383  and  _384
REMARK  157  A    between atoms: _383  and  _386
REMARK  158  A    between atoms: _386  and  _387
REMARK  159  A    between atoms: _390  and  _392
REMARK  160  A    between atoms: _392  and  _393
REMARK  161  A    between atoms: _392  and  _395
REMARK  162  A    between atoms: _398  and  _400
REMARK  163  A    between atoms: _400  and  _401
REMARK  164  A    between atoms: _400  and  _403
REMARK  165  A    between atoms: _403  and  _404
REMARK  166  A    between atoms: _407  and  _409
REMARK  167  A    between atoms: _409  and  _410
REMARK  168  A    between atoms: _409  and  _412
REMARK  169  A    between atoms: _412  and  _413
REMARK  170  A    between atoms: _413  and  _414
REMARK  171  A    between atoms: _414  and  _415
REMARK  172  A    between atoms: _415  and  _416
REMARK  173  A    between atoms: _420  and  _422
REMARK  174  A    between atoms: _422  and  _423
REMARK  175  A    between atoms: _422  and  _425
REMARK  176  A    between atoms: _425  and  _426
REMARK  177  A    between atoms: _426  and  _427
REMARK  178  A    between atoms: _429  and  _431
REMARK  179  A    between atoms: _431  and  _432
REMARK  180  A    between atoms: _431  and  _434
REMARK  181  A    between atoms: _434  and  _435
REMARK  182  A    between atoms: _438  and  _440
REMARK  183  A    between atoms: _440  and  _441
REMARK  184  A    between atoms: _443  and  _445
REMARK  185  A    between atoms: _445  and  _446
REMARK  186  A    between atoms: _448  and  _450
REMARK  187  A    between atoms: _450  and  _451
REMARK  188  A    between atoms: _450  and  _453
REMARK  189  A    between atoms: _453  and  _454
REMARK  190  A    between atoms: _457  and  _459
REMARK  191  A    between atoms: _459  and  _460
REMARK  192  A    between atoms: _462  and  _464
REMARK  193  A    between atoms: _464  and  _465
REMARK  194  A    between atoms: _467  and  _469
REMARK  195  A    between atoms: _469  and  _470
REMARK  196  A    between atoms: _469  and  _472
REMARK  197  A    between atoms: _472  and  _473
REMARK  198  A    between atoms: _476  and  _478
REMARK  199  A    between atoms: _478  and  _479
REMARK  200  A    between atoms: _478  and  _481
REMARK  201  A    between atoms: _484  and  _486
REMARK  202  A    between atoms: _486  and  _487
REMARK  203  A    between atoms: _486  and  _489
REMARK  204  A    between atoms: _489  and  _490
REMARK  205  A    between atoms: _493  and  _495
REMARK  206  A    between atoms: _495  and  _496
REMARK  207  A    between atoms: _495  and  _498
REMARK  208  A    between atoms: _498  and  _499
REMARK  209  A    between atoms: _503  and  _504
REMARK  210  A    between atoms: _509  and  _511
REMARK  211  A    between atoms: _511  and  _512
REMARK  212  A    between atoms: _511  and  _514
REMARK  213  A    between atoms: _517  and  _519
REMARK  214  A    between atoms: _519  and  _520
REMARK  215  A    between atoms: _519  and  _522
REMARK  216  A    between atoms: _522  and  _523
REMARK  217  A    between atoms: _528  and  _530
REMARK  218  A    between atoms: _530  and  _531
REMARK  219  A    between atoms: _530  and  _533
REMARK  220  A    between atoms: _536  and  _538
REMARK  221  A    between atoms: _538  and  _539
REMARK  222  A    between atoms: _538  and  _541
REMARK  223  A    between atoms: _541  and  _542
REMARK  224  A    between atoms: _545  and  _547
REMARK  225  A    between atoms: _547  and  _548
REMARK  226  A    between atoms: _550  and  _552
REMARK  227  A    between atoms: _552  and  _553
REMARK  228  A    between atoms: _552  and  _555
REMARK  229  A    between atoms: _555  and  _556
REMARK  230  A    between atoms: _556  and  _557
REMARK  231  A    between atoms: _557  and  _558
REMARK  232  A    between atoms: _567  and  _569
REMARK  233  A    between atoms: _569  and  _570
REMARK  234  A    between atoms: _569  and  _572
REMARK  235  A    between atoms: _572  and  _573
REMARK                            x       y       z     vdW  Elec       q    Type
REMARK                         _______ _______ _______ _____ _____    ______ ____
ROOT
ATOM      1  C   ALA A   6      10.832  12.956  17.089  0.00  0.00    +0.241 C 
ATOM      2  N   ASP A   7       9.491  12.959  17.157  0.00  0.00    -0.297 N 
ATOM      3  H   ASP A   7       8.976  13.860  17.220  0.00  0.00    +0.150 HD
ATOM      4  O   ALA A   6      11.497  11.914  17.046  0.00  0.00    -0.273 OA
ENDROOT
BRANCH   1   5
ATOM      5  CA  ALA A   6      11.553  14.296  17.056  0.00  0.00    +0.149 C 
ATOM      6  CB  ALA A   6      12.291  14.452  15.711  0.00  0.00    +0.031 C 
BRANCH   5   9
ATOM      7  C   GLY A   5      12.310  15.196  19.201  0.00  0.00    +0.243 C 
ATOM      8  O   GLY A   5      11.275  15.844  19.292  0.00  0.00    -0.273 OA
ATOM      9  N   ALA A   6      12.522  14.389  18.169  0.00  0.00    -0.297 N 
ATOM     10  H   ALA A   6      13.386  13.811  18.143  0.00  0.00    +0.150 HD
BRANCH   7  11
ATOM     11  CA  GLY A   5      13.391  15.289  20.298  0.00  0.00    +0.176 C 
BRANCH  11  14
ATOM     12  C   THR A   4      14.532  13.110  20.465  0.00  0.00    +0.243 C 
ATOM     13  O   THR A   4      13.563  12.580  21.002  0.00  0.00    -0.273 OA
ATOM     14  N   GLY A   5      14.575  14.406  20.151  0.00  0.00    -0.295 N 
ATOM     15  H   GLY A   5      15.464  14.809  19.793  0.00  0.00    +0.150 HD
BRANCH  12  16
ATOM     16  CA  THR A   4      15.781  12.290  20.153  0.00  0.00    +0.176 C 
BRANCH  16  18
ATOM     17  C   ASP A   3      16.213  13.061  17.842  0.00  0.00    +0.241 C 
ATOM     18  N   THR A   4      16.607  12.967  19.117  0.00  0.00    -0.295 N 
ATOM     19  H   THR A   4      17.520  13.381  19.393  0.00  0.00    +0.150 HD
ATOM     20  O   ASP A   3      15.125  12.659  17.453  0.00  0.00    -0.273 OA
BRANCH  17  21
ATOM     21  CA  ASP A   3      17.146  13.793  16.864  0.00  0.00    +0.160 C 
BRANCH  21  24
ATOM     22  C   LEU A   2      19.278  12.971  16.036  0.00  0.00    +0.241 C 
ATOM     23  O   LEU A   2      19.924  13.583  16.889  0.00  0.00    -0.273 OA
ATOM     24  N   ASP A   3      17.947  12.899  16.036  0.00  0.00    -0.297 N 
ATOM     25  H   ASP A   3      17.472  12.194  15.436  0.00  0.00    +0.150 HD
BRANCH  22  26
ATOM     26  CA  LEU A   2      19.990  12.278  14.884  0.00  0.00    +0.149 C 
BRANCH  26  28
ATOM     27  C   LEU A   1      19.852  13.978  13.152  0.00  0.00    +0.238 C 
ATOM     28  N   LEU A   2      20.588  13.302  14.036  0.00  0.00    -0.297 N 
ATOM     29  H   LEU A   2      21.604  13.509  14.121  0.00  0.00    +0.150 HD
ATOM     30  O   LEU A   1      18.697  13.657  12.897  0.00  0.00    -0.274 OA
BRANCH  27  31
ATOM     31  CA  LEU A   1      20.519  15.133  12.373  0.00  0.00    +0.145 C 
BRANCH  31  32
ATOM     32  N   LEU A   1      20.215  14.967  10.969  0.00  0.00    -0.238 NA
ATOM     33  H   LEU A   1      19.322  15.342  10.589  0.00  0.00    +0.142 HD
ENDBRANCH  31  32
BRANCH  31  34
ATOM     34  CB  LEU A   1      20.033  16.543  12.760  0.00  0.00    +0.026 C 
BRANCH  34  35
ATOM     35  CG  LEU A   1      19.835  17.096  14.149  0.00  0.00    +0.002 C 
ATOM     36  CD2 LEU A   1      21.171  17.278  14.830  0.00  0.00    +0.000 C 
ATOM     37  CD1 LEU A   1      19.045  18.439  14.073  0.00  0.00    +0.000 C 
ENDBRANCH  34  35
ENDBRANCH  31  34
ENDBRANCH  27  31
ENDBRANCH  26  28
BRANCH  26  38
ATOM     38  CB  LEU A   2      21.052  11.323  15.426  0.00  0.00    +0.029 C 
BRANCH  38  39
ATOM     39  CG  LEU A   2      21.859  10.497  14.432  0.00  0.00    +0.002 C 
ATOM     40  CD2 LEU A   2      22.860   9.678  15.204  0.00  0.00    +0.000 C 
ATOM     41  CD1 LEU A   2      20.961   9.605  13.615  0.00  0.00    +0.000 C 
ENDBRANCH  38  39
ENDBRANCH  26  38
ENDBRANCH  22  26
ENDBRANCH  21  24
BRANCH  21  42
ATOM     42  CB  ASP A   3      16.334  14.727  15.934  0.00  0.00    +0.143 C 
BRANCH  42  43
ATOM     43  CG  ASP A   3      15.693  15.872  16.667  0.00  0.00    +0.367 C 
ATOM     44  OD2 ASP A   3      15.734  15.889  17.928  0.00  0.00    -0.246 OA
ATOM     45  OD1 ASP A   3      15.168  16.775  15.966  0.00  0.00    -0.246 OA
ENDBRANCH  42  43
ENDBRANCH  21  42
ENDBRANCH  17  21
ENDBRANCH  16  18
BRANCH  16  46
ATOM     46  CB  THR A   4      16.564  12.079  21.462  0.00  0.00    +0.137 C 
ATOM     47  CG2 THR A   4      17.803  11.210  21.204  0.00  0.00    +0.034 C 
BRANCH  46  48
ATOM     48  OG1 THR A   4      16.973  13.361  21.966  0.00  0.00    -0.382 OA
ATOM     49  HG1 THR A   4      16.172  13.917  22.138  0.00  0.00    +0.210 HD
ENDBRANCH  46  48
ENDBRANCH  16  46
ENDBRANCH  12  16
ENDBRANCH  11  14
ENDBRANCH   7  11
ENDBRANCH   5   9
ENDBRANCH   1   5
BRANCH   2  50
ATOM     50  CA  ASP A   7       8.751  11.690  17.143  0.00  0.00    +0.160 C 
BRANCH  50  51
ATOM     51  C   ASP A   7       9.034  10.915  15.856  0.00  0.00    +0.241 C 
ATOM     52  O   ASP A   7       9.256   9.702  15.887  0.00  0.00    -0.273 OA
ATOM     53  N   ASP A   8       8.975  11.608  14.727  0.00  0.00    -0.297 N 
ATOM     54  H   ASP A   8       8.826  12.637  14.767  0.00  0.00    +0.150 HD
BRANCH  53  55
ATOM     55  CA  ASP A   8       9.114  10.958  13.437  0.00  0.00    +0.160 C 
BRANCH  55  56
ATOM     56  C   ASP A   8      10.164  11.636  12.583  0.00  0.00    +0.241 C 
ATOM     57  O   ASP A   8      10.501  12.801  12.767  0.00  0.00    -0.273 OA
ATOM     58  N   THR A   9      10.676  10.870  11.644  0.00  0.00    -0.295 N 
ATOM     59  H   THR A   9      10.349   9.885  11.575  0.00  0.00    +0.150 HD
BRANCH  58  60
ATOM     60  CA  THR A   9      11.675  11.335  10.701  0.00  0.00    +0.176 C 
BRANCH  60  61
ATOM     61  C   THR A   9      11.026  12.307   9.736  0.00  0.00    +0.243 C 
ATOM     62  N   VAL A  10      11.686  13.452   9.518  0.00  0.00    -0.297 N 
ATOM     63  H   VAL A  10      12.566  13.626  10.044  0.00  0.00    +0.150 HD
ATOM     64  O   THR A   9       9.947  12.028   9.213  0.00  0.00    -0.273 OA
BRANCH  62  65
ATOM     65  CA  VAL A  10      11.224  14.473   8.570  0.00  0.00    +0.149 C 
BRANCH  65  66
ATOM     66  C   VAL A  10      12.395  14.850   7.684  0.00  0.00    +0.241 C 
ATOM     67  O   VAL A  10      13.473  15.191   8.190  0.00  0.00    -0.273 OA
ATOM     68  N   ILE A  11      12.154  14.792   6.374  0.00  0.00    -0.298 N 
ATOM     69  H   ILE A  11      11.182  14.584   6.067  0.00  0.00    +0.150 HD
BRANCH  68  70
ATOM     70  CA  ILE A  11      13.171  15.003   5.338  0.00  0.00    +0.137 C 
BRANCH  70  71
ATOM     71  C   ILE A  11      12.755  16.209   4.478  0.00  0.00    +0.227 C 
ATOM     72  O   ILE A  11      11.557  16.430   4.232  0.00  0.00    -0.286 OA
ENDBRANCH  70  71
BRANCH  70  73
ATOM     73  CB  ILE A  11      13.380  13.713   4.503  0.00  0.00    +0.026 C 
ATOM     74  CG2 ILE A  11      14.382  13.951   3.291  0.00  0.00    +0.002 C 
BRANCH  73  75
ATOM     75  CG1 ILE A  11      13.791  12.534   5.408  0.00  0.00    +0.002 C 
ATOM     76  CD1 ILE A  11      15.135  12.719   6.136  0.00  0.00    +0.000 C 
ENDBRANCH  73  75
ENDBRANCH  70  73
ENDBRANCH  68  70
ENDBRANCH  65  66
BRANCH  65  77
ATOM     77  CB  VAL A  10      10.775  15.808   9.217  0.00  0.00    +0.027 C 
ATOM     78  CG2 VAL A  10      10.011  15.565  10.491  0.00  0.00    +0.002 C 
ATOM     79  CG1 VAL A  10       9.894  16.563   8.229  0.00  0.00    +0.002 C 
ENDBRANCH  65  77
ENDBRANCH  62  65
ENDBRANCH  60  61
BRANCH  60  80
ATOM     80  CB  THR A   9      12.237  10.106  10.008  0.00  0.00    +0.137 C 
ATOM     81  CG2 THR A   9      13.226  10.468   8.879  0.00  0.00    +0.034 C 
BRANCH  80  82
ATOM     82  OG1 THR A   9      12.879   9.306  11.012  0.00  0.00    -0.382 OA
ATOM     83  HG1 THR A   9      12.215   9.045  11.699  0.00  0.00    +0.210 HD
ENDBRANCH  80  82
ENDBRANCH  60  80
ENDBRANCH  58  60
ENDBRANCH  55  56
BRANCH  55  84
ATOM     84  CB  ASP A   8       7.784  10.973  12.699  0.00  0.00    +0.143 C 
BRANCH  84  85
ATOM     85  CG  ASP A   8       6.766  10.057  13.340  0.00  0.00    +0.367 C 
ATOM     86  OD2 ASP A   8       5.852  10.570  14.023  0.00  0.00    -0.246 OA
ATOM     87  OD1 ASP A   8       6.913   8.836  13.199  0.00  0.00    -0.246 OA
ENDBRANCH  84  85
ENDBRANCH  55  84
ENDBRANCH  53  55
ENDBRANCH  50  51
BRANCH  50  88
ATOM     88  CB  ASP A   7       7.219  11.873  17.239  0.00  0.00    +0.143 C 
BRANCH  88  89
ATOM     89  CG  ASP A   7       6.737  12.388  18.608  0.00  0.00    +0.367 C 
ATOM     90  OD2 ASP A   7       7.397  12.196  19.669  0.00  0.00    -0.246 OA
ATOM     91  OD1 ASP A   7       5.630  12.965  18.610  0.00  0.00    -0.246 OA
ENDBRANCH  88  89
ENDBRANCH  50  88
ENDBRANCH   2  50
TORSDOF 39
REMARK  Name = ../refined-set-2016/3nu9/3nu9_pocket.pdb
REMARK  235 active torsions:
REMARK  status: ('A' for Active; 'I' for Inactive)
REMARK    1  A    between atoms: _1  and  _3
REMARK    2  A    between atoms: _3  and  _4
REMARK    3  A    between atoms: _3  and  _6
REMARK    4  A    between atoms: _6  and  _7
REMARK    5  A    between atoms: _7  and  _8
REMARK    6  A    between atoms: _8  and  _9
REMARK    7  A    between atoms: _18  and  _20
REMARK    8  A    between atoms: _20  and  _21
REMARK    9  A    between atoms: _20  and  _23
REMARK   10  A    between atoms: _23  and  _24
REMARK   11  A    between atoms: _27  and  _29
REMARK   12  A    between atoms: _29  and  _30
REMARK   13  A    between atoms: _29  and  _32
REMARK   14  A    between atoms: _32  and  _33
REMARK   15  A    between atoms: _36  and  _38
REMARK   16  A    between atoms: _38  and  _39
REMARK   17  A    between atoms: _38  and  _41
REMARK   18  A    between atoms: _41  and  _42
REMARK   19  A    between atoms: _45  and  _47
REMARK   20  A    between atoms: _47  and  _48
REMARK   21  A    between atoms: _47  and  _50
REMARK   22  A    between atoms: _50  and  _51
REMARK   23  A    between atoms: _54  and  _56
REMARK   24  A    between atoms: _56  and  _57
REMARK   25  A    between atoms: _59  and  _61
REMARK   26  A    between atoms: _61  and  _62
REMARK   27  A    between atoms: _65  and  _67
REMARK   28  A    between atoms: _67  and  _68
REMARK   29  A    between atoms: _67  and  _70
REMARK   30  A    between atoms: _70  and  _71
REMARK   31  A    between atoms: _74  and  _76
REMARK   32  A    between atoms: _76  and  _77
REMARK   33  A    between atoms: _76  and  _79
REMARK   34  A    between atoms: _79  and  _80
REMARK   35  A    between atoms: _83  and  _85
REMARK   36  A    between atoms: _85  and  _86
REMARK   37  A    between atoms: _85  and  _88
REMARK   38  A    between atoms: _88  and  _89
REMARK   39  A    between atoms: _92  and  _94
REMARK   40  A    between atoms: _94  and  _95
REMARK   41  A    between atoms: _94  and  _97
REMARK   42  A    between atoms: _100  and  _102
REMARK   43  A    between atoms: _102  and  _103
REMARK   44  A    between atoms: _102  and  _105
REMARK   45  A    between atoms: _105  and  _106
REMARK   46  A    between atoms: _109  and  _111
REMARK   47  A    between atoms: _111  and  _112
REMARK   48  A    between atoms: _111  and  _114
REMARK   49  A    between atoms: _114  and  _115
REMARK   50  A    between atoms: _115  and  _116
REMARK   51  A    between atoms: _116  and  _117
REMARK   52  A    between atoms: _117  and  _118
REMARK   53  A    between atoms: _122  and  _124
REMARK   54  A    between atoms: _124  and  _125
REMARK   55  A    between atoms: _124  and  _127
REMARK   56  A    between atoms: _127  and  _128
REMARK   57  A    between atoms: _128  and  _129
REMARK   58  A    between atoms: _131  and  _133
REMARK   59  A    between atoms: _133  and  _134
REMARK   60  A    between atoms: _133  and  _136
REMARK   61  A    between atoms: _136  and  _137
REMARK   62  A    between atoms: _140  and  _142
REMARK   63  A    between atoms: _142  and  _143
REMARK   64  A    between atoms: _145  and  _147
REMARK   65  A    between atoms: _147  and  _148
REMARK   66  A    between atoms: _150  and  _152
REMARK   67  A    between atoms: _152  and  _153
REMARK   68  A    between atoms: _152  and  _155
REMARK   69  A    between atoms: _155  and  _156
REMARK   70  A    between atoms: _159  and  _161
REMARK   71  A    between atoms: _161  and  _162
REMARK   72  A    between atoms: _164  and  _166
REMARK   73  A    between atoms: _166  and  _167
REMARK   74  A    between atoms: _169  and  _171
REMARK   75  A    between atoms: _171  and  _172
REMARK   76  A    between atoms: _171  and  _174
REMARK   77  A    between atoms: _174  and  _175
REMARK   78  A    between atoms: _181  and  _183
REMARK   79  A    between atoms: _183  and  _184
REMARK   80  A    between atoms: _183  and  _186
REMARK   81  A    between atoms: _186  and  _187
REMARK   82  A    between atoms: _190  and  _192
REMARK   83  A    between atoms: _192  and  _193
REMARK   84  A    between atoms: _192  and  _195
REMARK   85  A    between atoms: _198  and  _200
REMARK   86  A    between atoms: _200  and  _201
REMARK   87  A    between atoms: _200  and  _203
REMARK   88  A    between atoms: _203  and  _204
REMARK   89  A    between atoms: _208  and  _209
REMARK   90  A    between atoms: _214  and  _216
REMARK   91  A    between atoms: _216  and  _217
REMARK   92  A    between atoms: _216  and  _219
REMARK   93  A    between atoms: _219  and  _220
REMARK   94  A    between atoms: _224  and  _225
REMARK   95  A    between atoms: _230  and  _232
REMARK   96  A    between atoms: _232  and  _233
REMARK   97  A    between atoms: _232  and  _235
REMARK   98  A    between atoms: _238  and  _240
REMARK   99  A    between atoms: _240  and  _241
REMARK  100  A    between atoms: _240  and  _243
REMARK  101  A    between atoms: _243  and  _244
REMARK  102  A    between atoms: _249  and  _251
REMARK  103  A    between atoms: _251  and  _252
REMARK  104  A    between atoms: _251  and  _254
REMARK  105  A    between atoms: _257  and  _259
REMARK  106  A    between atoms: _259  and  _260
REMARK  107  A    between atoms: _259  and  _262
REMARK  108  A    between atoms: _262  and  _263
REMARK  109  A    between atoms: _266  and  _268
REMARK  110  A    between atoms: _268  and  _269
REMARK  111  A    between atoms: _271  and  _273
REMARK  112  A    between atoms: _273  and  _274
REMARK  113  A    between atoms: _273  and  _276
REMARK  114  A    between atoms: _276  and  _277
REMARK  115  A    between atoms: _277  and  _278
REMARK  116  A    between atoms: _278  and  _279
REMARK  117  A    between atoms: _288  and  _290
REMARK  118  A    between atoms: _290  and  _291
REMARK  119  A    between atoms: _290  and  _293
REMARK  120  A    between atoms: _293  and  _294
REMARK  121  A    between atoms: _299  and  _301
REMARK  122  A    between atoms: _301  and  _302
REMARK  123  A    between atoms: _301  and  _304
REMARK  124  A    between atoms: _304  and  _305
REMARK  125  A    between atoms: _305  and  _306
REMARK  126  A    between atoms: _306  and  _307
REMARK  127  A    between atoms: _316  and  _318
REMARK  128  A    between atoms: _318  and  _319
REMARK  129  A    between atoms: _318  and  _321
REMARK  130  A    between atoms: _321  and  _322
REMARK  131  A    between atoms: _325  and  _327
REMARK  132  A    between atoms: _327  and  _328
REMARK  133  A    between atoms: _327  and  _330
REMARK  134  A    between atoms: _330  and  _331
REMARK  135  A    between atoms: _334  and  _336
REMARK  136  A    between atoms: _336  and  _337
REMARK  137  A    between atoms: _336  and  _339
REMARK  138  A    between atoms: _339  and  _340
REMARK  139  A    between atoms: _343  and  _345
REMARK  140  A    between atoms: _345  and  _346
REMARK  141  A    between atoms: _345  and  _348
REMARK  142  A    between atoms: _348  and  _349
REMARK  143  A    between atoms: _352  and  _354
REMARK  144  A    between atoms: _354  and  _355
REMARK  145  A    between atoms: _357  and  _359
REMARK  146  A    between atoms: _359  and  _360
REMARK  147  A    between atoms: _363  and  _365
REMARK  148  A    between atoms: _365  and  _366
REMARK  149  A    between atoms: _365  and  _368
REMARK  150  A    between atoms: _368  and  _369
REMARK  151  A    between atoms: _372  and  _374
REMARK  152  A    between atoms: _374  and  _375
REMARK  153  A    between atoms: _374  and  _377
REMARK  154  A    between atoms: _377  and  _378
REMARK  155  A    between atoms: _381  and  _383
REMARK  156  A    between atoms: _383  and  _384
REMARK  157  A    between atoms: _383  and  _386
REMARK  158  A    between atoms: _386  and  _387
REMARK  159  A    between atoms: _390  and  _392
REMARK  160  A    between atoms: _392  and  _393
REMARK  161  A    between atoms: _392  and  _395
REMARK  162  A    between atoms: _398  and  _400
REMARK  163  A    between atoms: _400  and  _401
REMARK  164  A    between atoms: _400  and  _403
REMARK  165  A    between atoms: _403  and  _404
REMARK  166  A    between atoms: _407  and  _409
REMARK  167  A    between atoms: _409  and  _410
REMARK  168  A    between atoms: _409  and  _412
REMARK  169  A    between atoms: _412  and  _413
REMARK  170  A    between atoms: _413  and  _414
REMARK  171  A    between atoms: _414  and  _415
REMARK  172  A    between atoms: _415  and  _416
REMARK  173  A    between atoms: _420  and  _422
REMARK  174  A    between atoms: _422  and  _423
REMARK  175  A    between atoms: _422  and  _425
REMARK  176  A    between atoms: _425  and  _426
REMARK  177  A    between atoms: _426  and  _427
REMARK  178  A    between atoms: _429  and  _431
REMARK  179  A    between atoms: _431  and  _432
REMARK  180  A    between atoms: _431  and  _434
REMARK  181  A    between atoms: _434  and  _435
REMARK  182  A    between atoms: _438  and  _440
REMARK  183  A    between atoms: _440  and  _441
REMARK  184  A    between atoms: _443  and  _445
REMARK  185  A    between atoms: _445  and  _446
REMARK  186  A    between atoms: _448  and  _450
REMARK  187  A    between atoms: _450  and  _451
REMARK  188  A    between atoms: _450  and  _453
REMARK  189  A    between atoms: _453  and  _454
REMARK  190  A    between atoms: _457  and  _459
REMARK  191  A    between atoms: _459  and  _460
REMARK  192  A    between atoms: _462  and  _464
REMARK  193  A    between atoms: _464  and  _465
REMARK  194  A    between atoms: _467  and  _469
REMARK  195  A    between atoms: _469  and  _470
REMARK  196  A    between atoms: _469  and  _472
REMARK  197  A    between atoms: _472  and  _473
REMARK  198  A    between atoms: _476  and  _478
REMARK  199  A    between atoms: _478  and  _479
REMARK  200  A    between atoms: _478  and  _481
REMARK  201  A    between atoms: _484  and  _486
REMARK  202  A    between atoms: _486  and  _487
REMARK  203  A    between atoms: _486  and  _489
REMARK  204  A    between atoms: _489  and  _490
REMARK  205  A    between atoms: _493  and  _495
REMARK  206  A    between atoms: _495  and  _496
REMARK  207  A    between atoms: _495  and  _498
REMARK  208  A    between atoms: _498  and  _499
REMARK  209  A    between atoms: _503  and  _504
REMARK  210  A    between atoms: _509  and  _511
REMARK  211  A    between atoms: _511  and  _512
REMARK  212  A    between atoms: _511  and  _514
REMARK  213  A    between atoms: _517  and  _519
REMARK  214  A    between atoms: _519  and  _520
REMARK  215  A    between atoms: _519  and  _522
REMARK  216  A    between atoms: _522  and  _523
REMARK  217  A    between atoms: _528  and  _530
REMARK  218  A    between atoms: _530  and  _531
REMARK  219  A    between atoms: _530  and  _533
REMARK  220  A    between atoms: _536  and  _538
REMARK  221  A    between atoms: _538  and  _539
REMARK  222  A    between atoms: _538  and  _541
REMARK  223  A    between atoms: _541  and  _542
REMARK  224  A    between atoms: _545  and  _547
REMARK  225  A    between atoms: _547  and  _548
REMARK  226  A    between atoms: _550  and  _552
REMARK  227  A    between atoms: _552  and  _553
REMARK  228  A    between atoms: _552  and  _555
REMARK  229  A    between atoms: _555  and  _556
REMARK  230  A    between atoms: _556  and  _557
REMARK  231  A    between atoms: _557  and  _558
REMARK  232  A    between atoms: _567  and  _569
REMARK  233  A    between atoms: _569  and  _570
REMARK  234  A    between atoms: _569  and  _572
REMARK  235  A    between atoms: _572  and  _573
REMARK                            x       y       z     vdW  Elec       q    Type
REMARK                         _______ _______ _______ _____ _____    ______ ____
ROOT
ATOM      1  C   GLY A   5       7.735  23.999  17.226  0.00  0.00    +0.243 C 
ATOM      2  N   ILE A   6       8.975  24.372  17.518  0.00  0.00    -0.297 N 
ATOM      3  H   ILE A   6       9.718  23.654  17.633  0.00  0.00    +0.150 HD
ATOM      4  O   GLY A   5       6.748  24.792  17.229  0.00  0.00    -0.273 OA
ENDROOT
BRANCH   2   5
ATOM      5  CA  ILE A   6       9.301  25.791  17.679  0.00  0.00    +0.149 C 
BRANCH   5   6
ATOM      6  C   ILE A   6       9.020  26.577  16.386  0.00  0.00    +0.241 C 
ATOM      7  N   GLY A   7       8.215  27.616  16.510  0.00  0.00    -0.295 N 
ATOM      8  H   GLY A   7       7.853  27.881  17.448  0.00  0.00    +0.150 HD
ATOM      9  O   ILE A   6       9.473  26.218  15.296  0.00  0.00    -0.273 OA
BRANCH   7  10
ATOM     10  CA  GLY A   7       7.833  28.391  15.341  0.00  0.00    +0.176 C 
BRANCH  10  11
ATOM     11  C   GLY A   7       6.489  27.973  14.781  0.00  0.00    +0.243 C 
ATOM     12  N   GLY A   8       5.911  26.893  15.302  0.00  0.00    -0.295 N 
ATOM     13  H   GLY A   8       6.403  26.346  16.038  0.00  0.00    +0.150 HD
ATOM     14  O   GLY A   7       5.957  28.650  13.898  0.00  0.00    -0.273 OA
BRANCH  12  15
ATOM     15  CA  GLY A   8       4.584  26.471  14.843  0.00  0.00    +0.176 C 
BRANCH  15  16
ATOM     16  C   GLY A   8       4.577  25.211  14.007  0.00  0.00    +0.243 C 
ATOM     17  O   GLY A   8       5.503  24.396  14.104  0.00  0.00    -0.273 OA
ATOM     18  N   PHE A   9       3.527  25.054  13.198  0.00  0.00    -0.297 N 
ATOM     19  H   PHE A   9       2.844  25.834  13.124  0.00  0.00    +0.150 HD
BRANCH  18  20
ATOM     20  CA  PHE A   9       3.280  23.829  12.399  0.00  0.00    +0.153 C 
BRANCH  20  21
ATOM     21  C   PHE A   9       3.636  23.965  10.918  0.00  0.00    +0.241 C 
ATOM     22  O   PHE A   9       3.494  25.045  10.329  0.00  0.00    -0.273 OA
ATOM     23  N   ILE A  10       4.051  22.847  10.320  0.00  0.00    -0.298 N 
ATOM     24  H   ILE A  10       4.309  22.036  10.918  0.00  0.00    +0.150 HD
BRANCH  23  25
ATOM     25  CA  ILE A  10       4.163  22.699   8.878  0.00  0.00    +0.137 C 
BRANCH  25  26
ATOM     26  CB  ILE A  10       5.646  22.621   8.357  0.00  0.00    +0.026 C 
ATOM     27  CG2 ILE A  10       6.378  23.959   8.699  0.00  0.00    +0.002 C 
BRANCH  26  28
ATOM     28  CG1 ILE A  10       6.416  21.404   8.906  0.00  0.00    +0.002 C 
ATOM     29  CD1 ILE A  10       7.687  21.084   8.101  0.00  0.00    +0.000 C 
ENDBRANCH  26  28
ENDBRANCH  25  26
BRANCH  25  30
ATOM     30  C   ILE A  10       3.343  21.489   8.420  0.00  0.00    +0.227 C 
ATOM     31  O   ILE A  10       3.141  20.530   9.181  0.00  0.00    -0.286 OA
ENDBRANCH  25  30
ENDBRANCH  23  25
ENDBRANCH  20  21
BRANCH  20  32
ATOM     32  CB  PHE A   9       1.791  23.435  12.457  0.00  0.00    +0.055 C 
BRANCH  32  33
ATOM     33  CG  PHE A   9       1.359  22.898  13.784  0.00  0.00    -0.020 A 
ATOM     34  CD2 PHE A   9       1.142  23.770  14.864  0.00  0.00    -0.004 A 
ATOM     35  CE2 PHE A   9       0.737  23.275  16.089  0.00  0.00    -0.000 A 
ATOM     36  CZ  PHE A   9       0.591  21.905  16.265  0.00  0.00    -0.000 A 
ATOM     37  CE1 PHE A   9       0.826  21.031  15.211  0.00  0.00    -0.000 A 
ATOM     38  CD1 PHE A   9       1.196  21.538  13.973  0.00  0.00    -0.004 A 
ENDBRANCH  32  33
ENDBRANCH  20  32
ENDBRANCH  18  20
ENDBRANCH  15  16
ENDBRANCH  12  15
ENDBRANCH  10  11
ENDBRANCH   7  10
ENDBRANCH   5   6
BRANCH   5  39
ATOM     39  CB  ILE A   6      10.738  26.025  18.218  0.00  0.00    +0.027 C 
ATOM     40  CG2 ILE A   6      11.286  27.395  17.719  0.00  0.00    +0.002 C 
BRANCH  39  41
ATOM     41  CG1 ILE A   6      10.664  26.070  19.746  0.00  0.00    +0.002 C 
ATOM     42  CD1 ILE A   6      11.782  25.487  20.486  0.00  0.00    +0.000 C 
ENDBRANCH  39  41
ENDBRANCH   5  39
ENDBRANCH   2   5
BRANCH   1  43
ATOM     43  CA  GLY A   5       7.567  22.540  16.873  0.00  0.00    +0.176 C 
BRANCH  43  46
ATOM     44  C   GLY A   4       5.748  21.206  15.990  0.00  0.00    +0.243 C 
ATOM     45  O   GLY A   4       6.155  20.197  16.549  0.00  0.00    -0.273 OA
ATOM     46  N   GLY A   5       6.404  22.352  16.019  0.00  0.00    -0.295 N 
ATOM     47  H   GLY A   5       6.082  23.137  15.418  0.00  0.00    +0.150 HD
BRANCH  44  48
ATOM     48  CA  GLY A   4       4.457  21.193  15.196  0.00  0.00    +0.176 C 
BRANCH  48  50
ATOM     49  C   ILE A   3       4.102  19.855  13.174  0.00  0.00    +0.241 C 
ATOM     50  N   GLY A   4       4.228  19.926  14.502  0.00  0.00    -0.295 N 
ATOM     51  H   GLY A   4       4.161  19.051  15.061  0.00  0.00    +0.150 HD
ATOM     52  O   ILE A   3       4.272  20.815  12.408  0.00  0.00    -0.273 OA
BRANCH  49  53
ATOM     53  CA  ILE A   3       3.698  18.512  12.634  0.00  0.00    +0.149 C 
BRANCH  53  56
ATOM     54  C   MET A   2       1.596  18.114  11.481  0.00  0.00    +0.241 C 
ATOM     55  O   MET A   2       1.243  17.297  12.309  0.00  0.00    -0.273 OA
ATOM     56  N   ILE A   3       2.787  18.707  11.508  0.00  0.00    -0.297 N 
ATOM     57  H   ILE A   3       3.074  19.318  10.717  0.00  0.00    +0.150 HD
BRANCH  54  58
ATOM     58  CA  MET A   2       0.679  18.459  10.331  0.00  0.00    +0.149 C 
BRANCH  58  60
ATOM     59  C   LYS A   1       0.449  16.798   8.556  0.00  0.00    +0.238 C 
ATOM     60  N   MET A   2       0.112  17.226   9.770  0.00  0.00    -0.297 N 
ATOM     61  H   MET A   2      -0.567  16.676  10.333  0.00  0.00    +0.150 HD
ATOM     62  O   LYS A   1       1.113  17.485   7.762  0.00  0.00    -0.274 OA
BRANCH  59  63
ATOM     63  CA  LYS A   1      -0.037  15.406   8.138  0.00  0.00    +0.145 C 
BRANCH  63  64
ATOM     64  N   LYS A   1      -0.163  15.428   6.696  0.00  0.00    -0.238 NA
ATOM     65  H   LYS A   1       0.463  16.063   6.161  0.00  0.00    +0.142 HD
ENDBRANCH  63  64
BRANCH  63  66
ATOM     66  CB  LYS A   1       1.004  14.351   8.525  0.00  0.00    +0.026 C 
BRANCH  66  67
ATOM     67  CG  LYS A   1       1.165  14.109  10.024  0.00  0.00    -0.000 C 
BRANCH  67  68
ATOM     68  CD  LYS A   1       2.279  13.070  10.246  0.00  0.00    -0.024 C 
BRANCH  68  69
ATOM     69  CE  LYS A   1       2.659  12.912  11.697  0.00  0.00    -0.086 C 
BRANCH  69  70
ATOM     70  NZ  LYS A   1       1.563  12.217  12.416  0.00  0.00    +0.380 N 
ATOM     71  HZ1 LYS A   1       1.822  12.107  13.417  0.00  0.00    -0.089 HD
ATOM     72  HZ2 LYS A   1       0.691  12.779  12.342  0.00  0.00    -0.089 HD
ATOM     73  HZ3 LYS A   1       1.410  11.280  11.991  0.00  0.00    -0.089 HD
ENDBRANCH  69  70
ENDBRANCH  68  69
ENDBRANCH  67  68
ENDBRANCH  66  67
ENDBRANCH  63  66
ENDBRANCH  59  63
ENDBRANCH  58  60
BRANCH  58  74
ATOM     74  CB  MET A   2      -0.428  19.394  10.813  0.00  0.00    +0.041 C 
BRANCH  74  75
ATOM     75  CG  MET A   2      -1.232  19.930   9.699  0.00  0.00    +0.060 C 
BRANCH  75  76
ATOM     76  SD  MET A   2      -0.459  21.412   8.983  0.00  0.00    -0.139 S 
ATOM     77  CE  MET A   2      -1.917  21.861   8.036  0.00  0.00    +0.069 C 
ENDBRANCH  75  76
ENDBRANCH  74  75
ENDBRANCH  58  74
ENDBRANCH  54  58
ENDBRANCH  53  56
BRANCH  53  78
ATOM     78  CB  ILE A   3       4.951  17.694  12.255  0.00  0.00    +0.027 C 
ATOM     79  CG2 ILE A   3       4.555  16.224  11.976  0.00  0.00    +0.002 C 
BRANCH  78  80
ATOM     80  CG1 ILE A   3       5.709  18.368  11.089  0.00  0.00    +0.002 C 
ATOM     81  CD1 ILE A   3       6.981  17.607  10.634  0.00  0.00    +0.000 C 
ENDBRANCH  78  80
ENDBRANCH  53  78
ENDBRANCH  49  53
ENDBRANCH  48  50
ENDBRANCH  44  48
ENDBRANCH  43  46
ENDBRANCH   1  43
TORSDOF 36
REMARK  Name = ../refined-set-2016/3nu9/3nu9_pocket.pdb
REMARK  235 active torsions:
REMARK  status: ('A' for Active; 'I' for Inactive)
REMARK    1  A    between atoms: _1  and  _3
REMARK    2  A    between atoms: _3  and  _4
REMARK    3  A    between atoms: _3  and  _6
REMARK    4  A    between atoms: _6  and  _7
REMARK    5  A    between atoms: _7  and  _8
REMARK    6  A    between atoms: _8  and  _9
REMARK    7  A    between atoms: _18  and  _20
REMARK    8  A    between atoms: _20  and  _21
REMARK    9  A    between atoms: _20  and  _23
REMARK   10  A    between atoms: _23  and  _24
REMARK   11  A    between atoms: _27  and  _29
REMARK   12  A    between atoms: _29  and  _30
REMARK   13  A    between atoms: _29  and  _32
REMARK   14  A    between atoms: _32  and  _33
REMARK   15  A    between atoms: _36  and  _38
REMARK   16  A    between atoms: _38  and  _39
REMARK   17  A    between atoms: _38  and  _41
REMARK   18  A    between atoms: _41  and  _42
REMARK   19  A    between atoms: _45  and  _47
REMARK   20  A    between atoms: _47  and  _48
REMARK   21  A    between atoms: _47  and  _50
REMARK   22  A    between atoms: _50  and  _51
REMARK   23  A    between atoms: _54  and  _56
REMARK   24  A    between atoms: _56  and  _57
REMARK   25  A    between atoms: _59  and  _61
REMARK   26  A    between atoms: _61  and  _62
REMARK   27  A    between atoms: _65  and  _67
REMARK   28  A    between atoms: _67  and  _68
REMARK   29  A    between atoms: _67  and  _70
REMARK   30  A    between atoms: _70  and  _71
REMARK   31  A    between atoms: _74  and  _76
REMARK   32  A    between atoms: _76  and  _77
REMARK   33  A    between atoms: _76  and  _79
REMARK   34  A    between atoms: _79  and  _80
REMARK   35  A    between atoms: _83  and  _85
REMARK   36  A    between atoms: _85  and  _86
REMARK   37  A    between atoms: _85  and  _88
REMARK   38  A    between atoms: _88  and  _89
REMARK   39  A    between atoms: _92  and  _94
REMARK   40  A    between atoms: _94  and  _95
REMARK   41  A    between atoms: _94  and  _97
REMARK   42  A    between atoms: _100  and  _102
REMARK   43  A    between atoms: _102  and  _103
REMARK   44  A    between atoms: _102  and  _105
REMARK   45  A    between atoms: _105  and  _106
REMARK   46  A    between atoms: _109  and  _111
REMARK   47  A    between atoms: _111  and  _112
REMARK   48  A    between atoms: _111  and  _114
REMARK   49  A    between atoms: _114  and  _115
REMARK   50  A    between atoms: _115  and  _116
REMARK   51  A    between atoms: _116  and  _117
REMARK   52  A    between atoms: _117  and  _118
REMARK   53  A    between atoms: _122  and  _124
REMARK   54  A    between atoms: _124  and  _125
REMARK   55  A    between atoms: _124  and  _127
REMARK   56  A    between atoms: _127  and  _128
REMARK   57  A    between atoms: _128  and  _129
REMARK   58  A    between atoms: _131  and  _133
REMARK   59  A    between atoms: _133  and  _134
REMARK   60  A    between atoms: _133  and  _136
REMARK   61  A    between atoms: _136  and  _137
REMARK   62  A    between atoms: _140  and  _142
REMARK   63  A    between atoms: _142  and  _143
REMARK   64  A    between atoms: _145  and  _147
REMARK   65  A    between atoms: _147  and  _148
REMARK   66  A    between atoms: _150  and  _152
REMARK   67  A    between atoms: _152  and  _153
REMARK   68  A    between atoms: _152  and  _155
REMARK   69  A    between atoms: _155  and  _156
REMARK   70  A    between atoms: _159  and  _161
REMARK   71  A    between atoms: _161  and  _162
REMARK   72  A    between atoms: _164  and  _166
REMARK   73  A    between atoms: _166  and  _167
REMARK   74  A    between atoms: _169  and  _171
REMARK   75  A    between atoms: _171  and  _172
REMARK   76  A    between atoms: _171  and  _174
REMARK   77  A    between atoms: _174  and  _175
REMARK   78  A    between atoms: _181  and  _183
REMARK   79  A    between atoms: _183  and  _184
REMARK   80  A    between atoms: _183  and  _186
REMARK   81  A    between atoms: _186  and  _187
REMARK   82  A    between atoms: _190  and  _192
REMARK   83  A    between atoms: _192  and  _193
REMARK   84  A    between atoms: _192  and  _195
REMARK   85  A    between atoms: _198  and  _200
REMARK   86  A    between atoms: _200  and  _201
REMARK   87  A    between atoms: _200  and  _203
REMARK   88  A    between atoms: _203  and  _204
REMARK   89  A    between atoms: _208  and  _209
REMARK   90  A    between atoms: _214  and  _216
REMARK   91  A    between atoms: _216  and  _217
REMARK   92  A    between atoms: _216  and  _219
REMARK   93  A    between atoms: _219  and  _220
REMARK   94  A    between atoms: _224  and  _225
REMARK   95  A    between atoms: _230  and  _232
REMARK   96  A    between atoms: _232  and  _233
REMARK   97  A    between atoms: _232  and  _235
REMARK   98  A    between atoms: _238  and  _240
REMARK   99  A    between atoms: _240  and  _241
REMARK  100  A    between atoms: _240  and  _243
REMARK  101  A    between atoms: _243  and  _244
REMARK  102  A    between atoms: _249  and  _251
REMARK  103  A    between atoms: _251  and  _252
REMARK  104  A    between atoms: _251  and  _254
REMARK  105  A    between atoms: _257  and  _259
REMARK  106  A    between atoms: _259  and  _260
REMARK  107  A    between atoms: _259  and  _262
REMARK  108  A    between atoms: _262  and  _263
REMARK  109  A    between atoms: _266  and  _268
REMARK  110  A    between atoms: _268  and  _269
REMARK  111  A    between atoms: _271  and  _273
REMARK  112  A    between atoms: _273  and  _274
REMARK  113  A    between atoms: _273  and  _276
REMARK  114  A    between atoms: _276  and  _277
REMARK  115  A    between atoms: _277  and  _278
REMARK  116  A    between atoms: _278  and  _279
REMARK  117  A    between atoms: _288  and  _290
REMARK  118  A    between atoms: _290  and  _291
REMARK  119  A    between atoms: _290  and  _293
REMARK  120  A    between atoms: _293  and  _294
REMARK  121  A    between atoms: _299  and  _301
REMARK  122  A    between atoms: _301  and  _302
REMARK  123  A    between atoms: _301  and  _304
REMARK  124  A    between atoms: _304  and  _305
REMARK  125  A    between atoms: _305  and  _306
REMARK  126  A    between atoms: _306  and  _307
REMARK  127  A    between atoms: _316  and  _318
REMARK  128  A    between atoms: _318  and  _319
REMARK  129  A    between atoms: _318  and  _321
REMARK  130  A    between atoms: _321  and  _322
REMARK  131  A    between atoms: _325  and  _327
REMARK  132  A    between atoms: _327  and  _328
REMARK  133  A    between atoms: _327  and  _330
REMARK  134  A    between atoms: _330  and  _331
REMARK  135  A    between atoms: _334  and  _336
REMARK  136  A    between atoms: _336  and  _337
REMARK  137  A    between atoms: _336  and  _339
REMARK  138  A    between atoms: _339  and  _340
REMARK  139  A    between atoms: _343  and  _345
REMARK  140  A    between atoms: _345  and  _346
REMARK  141  A    between atoms: _345  and  _348
REMARK  142  A    between atoms: _348  and  _349
REMARK  143  A    between atoms: _352  and  _354
REMARK  144  A    between atoms: _354  and  _355
REMARK  145  A    between atoms: _357  and  _359
REMARK  146  A    between atoms: _359  and  _360
REMARK  147  A    between atoms: _363  and  _365
REMARK  148  A    between atoms: _365  and  _366
REMARK  149  A    between atoms: _365  and  _368
REMARK  150  A    between atoms: _368  and  _369
REMARK  151  A    between atoms: _372  and  _374
REMARK  152  A    between atoms: _374  and  _375
REMARK  153  A    between atoms: _374  and  _377
REMARK  154  A    between atoms: _377  and  _378
REMARK  155  A    between atoms: _381  and  _383
REMARK  156  A    between atoms: _383  and  _384
REMARK  157  A    between atoms: _383  and  _386
REMARK  158  A    between atoms: _386  and  _387
REMARK  159  A    between atoms: _390  and  _392
REMARK  160  A    between atoms: _392  and  _393
REMARK  161  A    between atoms: _392  and  _395
REMARK  162  A    between atoms: _398  and  _400
REMARK  163  A    between atoms: _400  and  _401
REMARK  164  A    between atoms: _400  and  _403
REMARK  165  A    between atoms: _403  and  _404
REMARK  166  A    between atoms: _407  and  _409
REMARK  167  A    between atoms: _409  and  _410
REMARK  168  A    between atoms: _409  and  _412
REMARK  169  A    between atoms: _412  and  _413
REMARK  170  A    between atoms: _413  and  _414
REMARK  171  A    between atoms: _414  and  _415
REMARK  172  A    between atoms: _415  and  _416
REMARK  173  A    between atoms: _420  and  _422
REMARK  174  A    between atoms: _422  and  _423
REMARK  175  A    between atoms: _422  and  _425
REMARK  176  A    between atoms: _425  and  _426
REMARK  177  A    between atoms: _426  and  _427
REMARK  178  A    between atoms: _429  and  _431
REMARK  179  A    between atoms: _431  and  _432
REMARK  180  A    between atoms: _431  and  _434
REMARK  181  A    between atoms: _434  and  _435
REMARK  182  A    between atoms: _438  and  _440
REMARK  183  A    between atoms: _440  and  _441
REMARK  184  A    between atoms: _443  and  _445
REMARK  185  A    between atoms: _445  and  _446
REMARK  186  A    between atoms: _448  and  _450
REMARK  187  A    between atoms: _450  and  _451
REMARK  188  A    between atoms: _450  and  _453
REMARK  189  A    between atoms: _453  and  _454
REMARK  190  A    between atoms: _457  and  _459
REMARK  191  A    between atoms: _459  and  _460
REMARK  192  A    between atoms: _462  and  _464
REMARK  193  A    between atoms: _464  and  _465
REMARK  194  A    between atoms: _467  and  _469
REMARK  195  A    between atoms: _469  and  _470
REMARK  196  A    between atoms: _469  and  _472
REMARK  197  A    between atoms: _472  and  _473
REMARK  198  A    between atoms: _476  and  _478
REMARK  199  A    between atoms: _478  and  _479
REMARK  200  A    between atoms: _478  and  _481
REMARK  201  A    between atoms: _484  and  _486
REMARK  202  A    between atoms: _486  and  _487
REMARK  203  A    between atoms: _486  and  _489
REMARK  204  A    between atoms: _489  and  _490
REMARK  205  A    between atoms: _493  and  _495
REMARK  206  A    between atoms: _495  and  _496
REMARK  207  A    between atoms: _495  and  _498
REMARK  208  A    between atoms: _498  and  _499
REMARK  209  A    between atoms: _503  and  _504
REMARK  210  A    between atoms: _509  and  _511
REMARK  211  A    between atoms: _511  and  _512
REMARK  212  A    between atoms: _511  and  _514
REMARK  213  A    between atoms: _517  and  _519
REMARK  214  A    between atoms: _519  and  _520
REMARK  215  A    between atoms: _519  and  _522
REMARK  216  A    between atoms: _522  and  _523
REMARK  217  A    between atoms: _528  and  _530
REMARK  218  A    between atoms: _530  and  _531
REMARK  219  A    between atoms: _530  and  _533
REMARK  220  A    between atoms: _536  and  _538
REMARK  221  A    between atoms: _538  and  _539
REMARK  222  A    between atoms: _538  and  _541
REMARK  223  A    between atoms: _541  and  _542
REMARK  224  A    between atoms: _545  and  _547
REMARK  225  A    between atoms: _547  and  _548
REMARK  226  A    between atoms: _550  and  _552
REMARK  227  A    between atoms: _552  and  _553
REMARK  228  A    between atoms: _552  and  _555
REMARK  229  A    between atoms: _555  and  _556
REMARK  230  A    between atoms: _556  and  _557
REMARK  231  A    between atoms: _557  and  _558
REMARK  232  A    between atoms: _567  and  _569
REMARK  233  A    between atoms: _569  and  _570
REMARK  234  A    between atoms: _569  and  _572
REMARK  235  A    between atoms: _572  and  _573
REMARK                            x       y       z     vdW  Elec       q    Type
REMARK                         _______ _______ _______ _____ _____    ______ ____
ROOT
ATOM      1  CA  VAL A   1       4.119  17.400   5.348  0.00  0.00    +0.133 C 
ENDROOT
BRANCH   1   2
ATOM      2  CB  VAL A   1       5.117  16.776   6.359  0.00  0.00    +0.023 C 
ATOM      3  CG2 VAL A   1       4.352  15.982   7.469  0.00  0.00    +0.002 C 
ATOM      4  CG1 VAL A   1       6.015  17.872   6.962  0.00  0.00    +0.002 C 
ENDBRANCH   1   2
BRANCH   1   5
ATOM      5  N   VAL A   1       3.199  18.321   6.009  0.00  0.00    -0.239 NA
ATOM      6  H   VAL A   1       2.484  17.933   6.657  0.00  0.00    +0.142 HD
ENDBRANCH   1   5
BRANCH   1   7
ATOM      7  C   VAL A   1       3.377  16.271   4.653  0.00  0.00    +0.224 C 
ATOM      8  O   VAL A   1       2.176  16.052   4.889  0.00  0.00    -0.287 OA
ENDBRANCH   1   7
TORSDOF 3
REMARK  Name = ../refined-set-2016/3nu9/3nu9_pocket.pdb
REMARK  235 active torsions:
REMARK  status: ('A' for Active; 'I' for Inactive)
REMARK    1  A    between atoms: _1  and  _3
REMARK    2  A    between atoms: _3  and  _4
REMARK    3  A    between atoms: _3  and  _6
REMARK    4  A    between atoms: _6  and  _7
REMARK    5  A    between atoms: _7  and  _8
REMARK    6  A    between atoms: _8  and  _9
REMARK    7  A    between atoms: _18  and  _20
REMARK    8  A    between atoms: _20  and  _21
REMARK    9  A    between atoms: _20  and  _23
REMARK   10  A    between atoms: _23  and  _24
REMARK   11  A    between atoms: _27  and  _29
REMARK   12  A    between atoms: _29  and  _30
REMARK   13  A    between atoms: _29  and  _32
REMARK   14  A    between atoms: _32  and  _33
REMARK   15  A    between atoms: _36  and  _38
REMARK   16  A    between atoms: _38  and  _39
REMARK   17  A    between atoms: _38  and  _41
REMARK   18  A    between atoms: _41  and  _42
REMARK   19  A    between atoms: _45  and  _47
REMARK   20  A    between atoms: _47  and  _48
REMARK   21  A    between atoms: _47  and  _50
REMARK   22  A    between atoms: _50  and  _51
REMARK   23  A    between atoms: _54  and  _56
REMARK   24  A    between atoms: _56  and  _57
REMARK   25  A    between atoms: _59  and  _61
REMARK   26  A    between atoms: _61  and  _62
REMARK   27  A    between atoms: _65  and  _67
REMARK   28  A    between atoms: _67  and  _68
REMARK   29  A    between atoms: _67  and  _70
REMARK   30  A    between atoms: _70  and  _71
REMARK   31  A    between atoms: _74  and  _76
REMARK   32  A    between atoms: _76  and  _77
REMARK   33  A    between atoms: _76  and  _79
REMARK   34  A    between atoms: _79  and  _80
REMARK   35  A    between atoms: _83  and  _85
REMARK   36  A    between atoms: _85  and  _86
REMARK   37  A    between atoms: _85  and  _88
REMARK   38  A    between atoms: _88  and  _89
REMARK   39  A    between atoms: _92  and  _94
REMARK   40  A    between atoms: _94  and  _95
REMARK   41  A    between atoms: _94  and  _97
REMARK   42  A    between atoms: _100  and  _102
REMARK   43  A    between atoms: _102  and  _103
REMARK   44  A    between atoms: _102  and  _105
REMARK   45  A    between atoms: _105  and  _106
REMARK   46  A    between atoms: _109  and  _111
REMARK   47  A    between atoms: _111  and  _112
REMARK   48  A    between atoms: _111  and  _114
REMARK   49  A    between atoms: _114  and  _115
REMARK   50  A    between atoms: _115  and  _116
REMARK   51  A    between atoms: _116  and  _117
REMARK   52  A    between atoms: _117  and  _118
REMARK   53  A    between atoms: _122  and  _124
REMARK   54  A    between atoms: _124  and  _125
REMARK   55  A    between atoms: _124  and  _127
REMARK   56  A    between atoms: _127  and  _128
REMARK   57  A    between atoms: _128  and  _129
REMARK   58  A    between atoms: _131  and  _133
REMARK   59  A    between atoms: _133  and  _134
REMARK   60  A    between atoms: _133  and  _136
REMARK   61  A    between atoms: _136  and  _137
REMARK   62  A    between atoms: _140  and  _142
REMARK   63  A    between atoms: _142  and  _143
REMARK   64  A    between atoms: _145  and  _147
REMARK   65  A    between atoms: _147  and  _148
REMARK   66  A    between atoms: _150  and  _152
REMARK   67  A    between atoms: _152  and  _153
REMARK   68  A    between atoms: _152  and  _155
REMARK   69  A    between atoms: _155  and  _156
REMARK   70  A    between atoms: _159  and  _161
REMARK   71  A    between atoms: _161  and  _162
REMARK   72  A    between atoms: _164  and  _166
REMARK   73  A    between atoms: _166  and  _167
REMARK   74  A    between atoms: _169  and  _171
REMARK   75  A    between atoms: _171  and  _172
REMARK   76  A    between atoms: _171  and  _174
REMARK   77  A    between atoms: _174  and  _175
REMARK   78  A    between atoms: _181  and  _183
REMARK   79  A    between atoms: _183  and  _184
REMARK   80  A    between atoms: _183  and  _186
REMARK   81  A    between atoms: _186  and  _187
REMARK   82  A    between atoms: _190  and  _192
REMARK   83  A    between atoms: _192  and  _193
REMARK   84  A    between atoms: _192  and  _195
REMARK   85  A    between atoms: _198  and  _200
REMARK   86  A    between atoms: _200  and  _201
REMARK   87  A    between atoms: _200  and  _203
REMARK   88  A    between atoms: _203  and  _204
REMARK   89  A    between atoms: _208  and  _209
REMARK   90  A    between atoms: _214  and  _216
REMARK   91  A    between atoms: _216  and  _217
REMARK   92  A    between atoms: _216  and  _219
REMARK   93  A    between atoms: _219  and  _220
REMARK   94  A    between atoms: _224  and  _225
REMARK   95  A    between atoms: _230  and  _232
REMARK   96  A    between atoms: _232  and  _233
REMARK   97  A    between atoms: _232  and  _235
REMARK   98  A    between atoms: _238  and  _240
REMARK   99  A    between atoms: _240  and  _241
REMARK  100  A    between atoms: _240  and  _243
REMARK  101  A    between atoms: _243  and  _244
REMARK  102  A    between atoms: _249  and  _251
REMARK  103  A    between atoms: _251  and  _252
REMARK  104  A    between atoms: _251  and  _254
REMARK  105  A    between atoms: _257  and  _259
REMARK  106  A    between atoms: _259  and  _260
REMARK  107  A    between atoms: _259  and  _262
REMARK  108  A    between atoms: _262  and  _263
REMARK  109  A    between atoms: _266  and  _268
REMARK  110  A    between atoms: _268  and  _269
REMARK  111  A    between atoms: _271  and  _273
REMARK  112  A    between atoms: _273  and  _274
REMARK  113  A    between atoms: _273  and  _276
REMARK  114  A    between atoms: _276  and  _277
REMARK  115  A    between atoms: _277  and  _278
REMARK  116  A    between atoms: _278  and  _279
REMARK  117  A    between atoms: _288  and  _290
REMARK  118  A    between atoms: _290  and  _291
REMARK  119  A    between atoms: _290  and  _293
REMARK  120  A    between atoms: _293  and  _294
REMARK  121  A    between atoms: _299  and  _301
REMARK  122  A    between atoms: _301  and  _302
REMARK  123  A    between atoms: _301  and  _304
REMARK  124  A    between atoms: _304  and  _305
REMARK  125  A    between atoms: _305  and  _306
REMARK  126  A    between atoms: _306  and  _307
REMARK  127  A    between atoms: _316  and  _318
REMARK  128  A    between atoms: _318  and  _319
REMARK  129  A    between atoms: _318  and  _321
REMARK  130  A    between atoms: _321  and  _322
REMARK  131  A    between atoms: _325  and  _327
REMARK  132  A    between atoms: _327  and  _328
REMARK  133  A    between atoms: _327  and  _330
REMARK  134  A    between atoms: _330  and  _331
REMARK  135  A    between atoms: _334  and  _336
REMARK  136  A    between atoms: _336  and  _337
REMARK  137  A    between atoms: _336  and  _339
REMARK  138  A    between atoms: _339  and  _340
REMARK  139  A    between atoms: _343  and  _345
REMARK  140  A    between atoms: _345  and  _346
REMARK  141  A    between atoms: _345  and  _348
REMARK  142  A    between atoms: _348  and  _349
REMARK  143  A    between atoms: _352  and  _354
REMARK  144  A    between atoms: _354  and  _355
REMARK  145  A    between atoms: _357  and  _359
REMARK  146  A    between atoms: _359  and  _360
REMARK  147  A    between atoms: _363  and  _365
REMARK  148  A    between atoms: _365  and  _366
REMARK  149  A    between atoms: _365  and  _368
REMARK  150  A    between atoms: _368  and  _369
REMARK  151  A    between atoms: _372  and  _374
REMARK  152  A    between atoms: _374  and  _375
REMARK  153  A    between atoms: _374  and  _377
REMARK  154  A    between atoms: _377  and  _378
REMARK  155  A    between atoms: _381  and  _383
REMARK  156  A    between atoms: _383  and  _384
REMARK  157  A    between atoms: _383  and  _386
REMARK  158  A    between atoms: _386  and  _387
REMARK  159  A    between atoms: _390  and  _392
REMARK  160  A    between atoms: _392  and  _393
REMARK  161  A    between atoms: _392  and  _395
REMARK  162  A    between atoms: _398  and  _400
REMARK  163  A    between atoms: _400  and  _401
REMARK  164  A    between atoms: _400  and  _403
REMARK  165  A    between atoms: _403  and  _404
REMARK  166  A    between atoms: _407  and  _409
REMARK  167  A    between atoms: _409  and  _410
REMARK  168  A    between atoms: _409  and  _412
REMARK  169  A    between atoms: _412  and  _413
REMARK  170  A    between atoms: _413  and  _414
REMARK  171  A    between atoms: _414  and  _415
REMARK  172  A    between atoms: _415  and  _416
REMARK  173  A    between atoms: _420  and  _422
REMARK  174  A    between atoms: _422  and  _423
REMARK  175  A    between atoms: _422  and  _425
REMARK  176  A    between atoms: _425  and  _426
REMARK  177  A    between atoms: _426  and  _427
REMARK  178  A    between atoms: _429  and  _431
REMARK  179  A    between atoms: _431  and  _432
REMARK  180  A    between atoms: _431  and  _434
REMARK  181  A    between atoms: _434  and  _435
REMARK  182  A    between atoms: _438  and  _440
REMARK  183  A    between atoms: _440  and  _441
REMARK  184  A    between atoms: _443  and  _445
REMARK  185  A    between atoms: _445  and  _446
REMARK  186  A    between atoms: _448  and  _450
REMARK  187  A    between atoms: _450  and  _451
REMARK  188  A    between atoms: _450  and  _453
REMARK  189  A    between atoms: _453  and  _454
REMARK  190  A    between atoms: _457  and  _459
REMARK  191  A    between atoms: _459  and  _460
REMARK  192  A    between atoms: _462  and  _464
REMARK  193  A    between atoms: _464  and  _465
REMARK  194  A    between atoms: _467  and  _469
REMARK  195  A    between atoms: _469  and  _470
REMARK  196  A    between atoms: _469  and  _472
REMARK  197  A    between atoms: _472  and  _473
REMARK  198  A    between atoms: _476  and  _478
REMARK  199  A    between atoms: _478  and  _479
REMARK  200  A    between atoms: _478  and  _481
REMARK  201  A    between atoms: _484  and  _486
REMARK  202  A    between atoms: _486  and  _487
REMARK  203  A    between atoms: _486  and  _489
REMARK  204  A    between atoms: _489  and  _490
REMARK  205  A    between atoms: _493  and  _495
REMARK  206  A    between atoms: _495  and  _496
REMARK  207  A    between atoms: _495  and  _498
REMARK  208  A    between atoms: _498  and  _499
REMARK  209  A    between atoms: _503  and  _504
REMARK  210  A    between atoms: _509  and  _511
REMARK  211  A    between atoms: _511  and  _512
REMARK  212  A    between atoms: _511  and  _514
REMARK  213  A    between atoms: _517  and  _519
REMARK  214  A    between atoms: _519  and  _520
REMARK  215  A    between atoms: _519  and  _522
REMARK  216  A    between atoms: _522  and  _523
REMARK  217  A    between atoms: _528  and  _530
REMARK  218  A    between atoms: _530  and  _531
REMARK  219  A    between atoms: _530  and  _533
REMARK  220  A    between atoms: _536  and  _538
REMARK  221  A    between atoms: _538  and  _539
REMARK  222  A    between atoms: _538  and  _541
REMARK  223  A    between atoms: _541  and  _542
REMARK  224  A    between atoms: _545  and  _547
REMARK  225  A    between atoms: _547  and  _548
REMARK  226  A    between atoms: _550  and  _552
REMARK  227  A    between atoms: _552  and  _553
REMARK  228  A    between atoms: _552  and  _555
REMARK  229  A    between atoms: _555  and  _556
REMARK  230  A    between atoms: _556  and  _557
REMARK  231  A    between atoms: _557  and  _558
REMARK  232  A    between atoms: _567  and  _569
REMARK  233  A    between atoms: _569  and  _570
REMARK  234  A    between atoms: _569  and  _572
REMARK  235  A    between atoms: _572  and  _573
REMARK                            x       y       z     vdW  Elec       q    Type
REMARK                         _______ _______ _______ _____ _____    ______ ____
ROOT
ATOM      1  CA  LEU A   1       7.581  12.632   6.499  0.00  0.00    +0.133 C 
ENDROOT
BRANCH   1   2
ATOM      2  N   LEU A   1       8.334  11.449   6.852  0.00  0.00    -0.239 NA
ATOM      3  H   LEU A   1       8.963  11.472   7.680  0.00  0.00    +0.142 HD
ENDBRANCH   1   2
BRANCH   1   4
ATOM      4  C   LEU A   1       8.458  13.484   5.593  0.00  0.00    +0.224 C 
ATOM      5  O   LEU A   1       9.664  13.609   5.831  0.00  0.00    -0.287 OA
ENDBRANCH   1   4
BRANCH   1   6
ATOM      6  CB  LEU A   1       7.183  13.419   7.748  0.00  0.00    +0.025 C 
BRANCH   6   7
ATOM      7  CG  LEU A   1       6.527  12.560   8.874  0.00  0.00    +0.002 C 
ATOM      8  CD2 LEU A   1       6.163  13.382  10.078  0.00  0.00    +0.000 C 
ATOM      9  CD1 LEU A   1       5.300  11.898   8.300  0.00  0.00    +0.000 C 
ENDBRANCH   6   7
ENDBRANCH   1   6
TORSDOF 4
REMARK  Name = ../refined-set-2016/3nu9/3nu9_pocket.pdb
REMARK  235 active torsions:
REMARK  status: ('A' for Active; 'I' for Inactive)
REMARK    1  A    between atoms: _1  and  _3
REMARK    2  A    between atoms: _3  and  _4
REMARK    3  A    between atoms: _3  and  _6
REMARK    4  A    between atoms: _6  and  _7
REMARK    5  A    between atoms: _7  and  _8
REMARK    6  A    between atoms: _8  and  _9
REMARK    7  A    between atoms: _18  and  _20
REMARK    8  A    between atoms: _20  and  _21
REMARK    9  A    between atoms: _20  and  _23
REMARK   10  A    between atoms: _23  and  _24
REMARK   11  A    between atoms: _27  and  _29
REMARK   12  A    between atoms: _29  and  _30
REMARK   13  A    between atoms: _29  and  _32
REMARK   14  A    between atoms: _32  and  _33
REMARK   15  A    between atoms: _36  and  _38
REMARK   16  A    between atoms: _38  and  _39
REMARK   17  A    between atoms: _38  and  _41
REMARK   18  A    between atoms: _41  and  _42
REMARK   19  A    between atoms: _45  and  _47
REMARK   20  A    between atoms: _47  and  _48
REMARK   21  A    between atoms: _47  and  _50
REMARK   22  A    between atoms: _50  and  _51
REMARK   23  A    between atoms: _54  and  _56
REMARK   24  A    between atoms: _56  and  _57
REMARK   25  A    between atoms: _59  and  _61
REMARK   26  A    between atoms: _61  and  _62
REMARK   27  A    between atoms: _65  and  _67
REMARK   28  A    between atoms: _67  and  _68
REMARK   29  A    between atoms: _67  and  _70
REMARK   30  A    between atoms: _70  and  _71
REMARK   31  A    between atoms: _74  and  _76
REMARK   32  A    between atoms: _76  and  _77
REMARK   33  A    between atoms: _76  and  _79
REMARK   34  A    between atoms: _79  and  _80
REMARK   35  A    between atoms: _83  and  _85
REMARK   36  A    between atoms: _85  and  _86
REMARK   37  A    between atoms: _85  and  _88
REMARK   38  A    between atoms: _88  and  _89
REMARK   39  A    between atoms: _92  and  _94
REMARK   40  A    between atoms: _94  and  _95
REMARK   41  A    between atoms: _94  and  _97
REMARK   42  A    between atoms: _100  and  _102
REMARK   43  A    between atoms: _102  and  _103
REMARK   44  A    between atoms: _102  and  _105
REMARK   45  A    between atoms: _105  and  _106
REMARK   46  A    between atoms: _109  and  _111
REMARK   47  A    between atoms: _111  and  _112
REMARK   48  A    between atoms: _111  and  _114
REMARK   49  A    between atoms: _114  and  _115
REMARK   50  A    between atoms: _115  and  _116
REMARK   51  A    between atoms: _116  and  _117
REMARK   52  A    between atoms: _117  and  _118
REMARK   53  A    between atoms: _122  and  _124
REMARK   54  A    between atoms: _124  and  _125
REMARK   55  A    between atoms: _124  and  _127
REMARK   56  A    between atoms: _127  and  _128
REMARK   57  A    between atoms: _128  and  _129
REMARK   58  A    between atoms: _131  and  _133
REMARK   59  A    between atoms: _133  and  _134
REMARK   60  A    between atoms: _133  and  _136
REMARK   61  A    between atoms: _136  and  _137
REMARK   62  A    between atoms: _140  and  _142
REMARK   63  A    between atoms: _142  and  _143
REMARK   64  A    between atoms: _145  and  _147
REMARK   65  A    between atoms: _147  and  _148
REMARK   66  A    between atoms: _150  and  _152
REMARK   67  A    between atoms: _152  and  _153
REMARK   68  A    between atoms: _152  and  _155
REMARK   69  A    between atoms: _155  and  _156
REMARK   70  A    between atoms: _159  and  _161
REMARK   71  A    between atoms: _161  and  _162
REMARK   72  A    between atoms: _164  and  _166
REMARK   73  A    between atoms: _166  and  _167
REMARK   74  A    between atoms: _169  and  _171
REMARK   75  A    between atoms: _171  and  _172
REMARK   76  A    between atoms: _171  and  _174
REMARK   77  A    between atoms: _174  and  _175
REMARK   78  A    between atoms: _181  and  _183
REMARK   79  A    between atoms: _183  and  _184
REMARK   80  A    between atoms: _183  and  _186
REMARK   81  A    between atoms: _186  and  _187
REMARK   82  A    between atoms: _190  and  _192
REMARK   83  A    between atoms: _192  and  _193
REMARK   84  A    between atoms: _192  and  _195
REMARK   85  A    between atoms: _198  and  _200
REMARK   86  A    between atoms: _200  and  _201
REMARK   87  A    between atoms: _200  and  _203
REMARK   88  A    between atoms: _203  and  _204
REMARK   89  A    between atoms: _208  and  _209
REMARK   90  A    between atoms: _214  and  _216
REMARK   91  A    between atoms: _216  and  _217
REMARK   92  A    between atoms: _216  and  _219
REMARK   93  A    between atoms: _219  and  _220
REMARK   94  A    between atoms: _224  and  _225
REMARK   95  A    between atoms: _230  and  _232
REMARK   96  A    between atoms: _232  and  _233
REMARK   97  A    between atoms: _232  and  _235
REMARK   98  A    between atoms: _238  and  _240
REMARK   99  A    between atoms: _240  and  _241
REMARK  100  A    between atoms: _240  and  _243
REMARK  101  A    between atoms: _243  and  _244
REMARK  102  A    between atoms: _249  and  _251
REMARK  103  A    between atoms: _251  and  _252
REMARK  104  A    between atoms: _251  and  _254
REMARK  105  A    between atoms: _257  and  _259
REMARK  106  A    between atoms: _259  and  _260
REMARK  107  A    between atoms: _259  and  _262
REMARK  108  A    between atoms: _262  and  _263
REMARK  109  A    between atoms: _266  and  _268
REMARK  110  A    between atoms: _268  and  _269
REMARK  111  A    between atoms: _271  and  _273
REMARK  112  A    between atoms: _273  and  _274
REMARK  113  A    between atoms: _273  and  _276
REMARK  114  A    between atoms: _276  and  _277
REMARK  115  A    between atoms: _277  and  _278
REMARK  116  A    between atoms: _278  and  _279
REMARK  117  A    between atoms: _288  and  _290
REMARK  118  A    between atoms: _290  and  _291
REMARK  119  A    between atoms: _290  and  _293
REMARK  120  A    between atoms: _293  and  _294
REMARK  121  A    between atoms: _299  and  _301
REMARK  122  A    between atoms: _301  and  _302
REMARK  123  A    between atoms: _301  and  _304
REMARK  124  A    between atoms: _304  and  _305
REMARK  125  A    between atoms: _305  and  _306
REMARK  126  A    between atoms: _306  and  _307
REMARK  127  A    between atoms: _316  and  _318
REMARK  128  A    between atoms: _318  and  _319
REMARK  129  A    between atoms: _318  and  _321
REMARK  130  A    between atoms: _321  and  _322
REMARK  131  A    between atoms: _325  and  _327
REMARK  132  A    between atoms: _327  and  _328
REMARK  133  A    between atoms: _327  and  _330
REMARK  134  A    between atoms: _330  and  _331
REMARK  135  A    between atoms: _334  and  _336
REMARK  136  A    between atoms: _336  and  _337
REMARK  137  A    between atoms: _336  and  _339
REMARK  138  A    between atoms: _339  and  _340
REMARK  139  A    between atoms: _343  and  _345
REMARK  140  A    between atoms: _345  and  _346
REMARK  141  A    between atoms: _345  and  _348
REMARK  142  A    between atoms: _348  and  _349
REMARK  143  A    between atoms: _352  and  _354
REMARK  144  A    between atoms: _354  and  _355
REMARK  145  A    between atoms: _357  and  _359
REMARK  146  A    between atoms: _359  and  _360
REMARK  147  A    between atoms: _363  and  _365
REMARK  148  A    between atoms: _365  and  _366
REMARK  149  A    between atoms: _365  and  _368
REMARK  150  A    between atoms: _368  and  _369
REMARK  151  A    between atoms: _372  and  _374
REMARK  152  A    between atoms: _374  and  _375
REMARK  153  A    between atoms: _374  and  _377
REMARK  154  A    between atoms: _377  and  _378
REMARK  155  A    between atoms: _381  and  _383
REMARK  156  A    between atoms: _383  and  _384
REMARK  157  A    between atoms: _383  and  _386
REMARK  158  A    between atoms: _386  and  _387
REMARK  159  A    between atoms: _390  and  _392
REMARK  160  A    between atoms: _392  and  _393
REMARK  161  A    between atoms: _392  and  _395
REMARK  162  A    between atoms: _398  and  _400
REMARK  163  A    between atoms: _400  and  _401
REMARK  164  A    between atoms: _400  and  _403
REMARK  165  A    between atoms: _403  and  _404
REMARK  166  A    between atoms: _407  and  _409
REMARK  167  A    between atoms: _409  and  _410
REMARK  168  A    between atoms: _409  and  _412
REMARK  169  A    between atoms: _412  and  _413
REMARK  170  A    between atoms: _413  and  _414
REMARK  171  A    between atoms: _414  and  _415
REMARK  172  A    between atoms: _415  and  _416
REMARK  173  A    between atoms: _420  and  _422
REMARK  174  A    between atoms: _422  and  _423
REMARK  175  A    between atoms: _422  and  _425
REMARK  176  A    between atoms: _425  and  _426
REMARK  177  A    between atoms: _426  and  _427
REMARK  178  A    between atoms: _429  and  _431
REMARK  179  A    between atoms: _431  and  _432
REMARK  180  A    between atoms: _431  and  _434
REMARK  181  A    between atoms: _434  and  _435
REMARK  182  A    between atoms: _438  and  _440
REMARK  183  A    between atoms: _440  and  _441
REMARK  184  A    between atoms: _443  and  _445
REMARK  185  A    between atoms: _445  and  _446
REMARK  186  A    between atoms: _448  and  _450
REMARK  187  A    between atoms: _450  and  _451
REMARK  188  A    between atoms: _450  and  _453
REMARK  189  A    between atoms: _453  and  _454
REMARK  190  A    between atoms: _457  and  _459
REMARK  191  A    between atoms: _459  and  _460
REMARK  192  A    between atoms: _462  and  _464
REMARK  193  A    between atoms: _464  and  _465
REMARK  194  A    between atoms: _467  and  _469
REMARK  195  A    between atoms: _469  and  _470
REMARK  196  A    between atoms: _469  and  _472
REMARK  197  A    between atoms: _472  and  _473
REMARK  198  A    between atoms: _476  and  _478
REMARK  199  A    between atoms: _478  and  _479
REMARK  200  A    between atoms: _478  and  _481
REMARK  201  A    between atoms: _484  and  _486
REMARK  202  A    between atoms: _486  and  _487
REMARK  203  A    between atoms: _486  and  _489
REMARK  204  A    between atoms: _489  and  _490
REMARK  205  A    between atoms: _493  and  _495
REMARK  206  A    between atoms: _495  and  _496
REMARK  207  A    between atoms: _495  and  _498
REMARK  208  A    between atoms: _498  and  _499
REMARK  209  A    between atoms: _503  and  _504
REMARK  210  A    between atoms: _509  and  _511
REMARK  211  A    between atoms: _511  and  _512
REMARK  212  A    between atoms: _511  and  _514
REMARK  213  A    between atoms: _517  and  _519
REMARK  214  A    between atoms: _519  and  _520
REMARK  215  A    between atoms: _519  and  _522
REMARK  216  A    between atoms: _522  and  _523
REMARK  217  A    between atoms: _528  and  _530
REMARK  218  A    between atoms: _530  and  _531
REMARK  219  A    between atoms: _530  and  _533
REMARK  220  A    between atoms: _536  and  _538
REMARK  221  A    between atoms: _538  and  _539
REMARK  222  A    between atoms: _538  and  _541
REMARK  223  A    between atoms: _541  and  _542
REMARK  224  A    between atoms: _545  and  _547
REMARK  225  A    between atoms: _547  and  _548
REMARK  226  A    between atoms: _550  and  _552
REMARK  227  A    between atoms: _552  and  _553
REMARK  228  A    between atoms: _552  and  _555
REMARK  229  A    between atoms: _555  and  _556
REMARK  230  A    between atoms: _556  and  _557
REMARK  231  A    between atoms: _557  and  _558
REMARK  232  A    between atoms: _567  and  _569
REMARK  233  A    between atoms: _569  and  _570
REMARK  234  A    between atoms: _569  and  _572
REMARK  235  A    between atoms: _572  and  _573
REMARK                            x       y       z     vdW  Elec       q    Type
REMARK                         _______ _______ _______ _____ _____    ______ ____
ROOT
ATOM      1  CA  VAL A   6      15.959  14.899  11.020  0.00  0.00    +0.149 C 
ENDROOT
BRANCH   1   2
ATOM      2  C   VAL A   6      15.552  13.447  11.018  0.00  0.00    +0.241 C 
ATOM      3  N   ILE A   7      16.402  12.613  11.617  0.00  0.00    -0.297 N 
ATOM      4  H   ILE A   7      17.344  12.955  11.896  0.00  0.00    +0.150 HD
ATOM      5  O   VAL A   6      14.500  13.089  10.474  0.00  0.00    -0.273 OA
BRANCH   3   6
ATOM      6  CA  ILE A   7      16.032  11.227  11.888  0.00  0.00    +0.149 C 
BRANCH   6   7
ATOM      7  C   ILE A   7      15.392  11.181  13.288  0.00  0.00    +0.241 C 
ATOM      8  O   ILE A   7      16.074  11.401  14.282  0.00  0.00    -0.273 OA
ATOM      9  N   GLY A   8      14.105  10.844  13.358  0.00  0.00    -0.295 N 
ATOM     10  H   GLY A   8      13.597  10.553  12.499  0.00  0.00    +0.150 HD
BRANCH   9  11
ATOM     11  CA  GLY A   8      13.405  10.883  14.643  0.00  0.00    +0.176 C 
BRANCH  11  12
ATOM     12  C   GLY A   8      13.358   9.515  15.305  0.00  0.00    +0.243 C 
ATOM     13  N   ARG A   9      12.715   9.447  16.455  0.00  0.00    -0.297 N 
ATOM     14  H   ARG A   9      12.199  10.283  16.796  0.00  0.00    +0.150 HD
ATOM     15  O   GLY A   8      13.898   8.545  14.796  0.00  0.00    -0.273 OA
BRANCH  13  16
ATOM     16  CA  ARG A   9      12.707   8.221  17.270  0.00  0.00    +0.149 C 
BRANCH  16  17
ATOM     17  C   ARG A   9      12.160   7.001  16.513  0.00  0.00    +0.241 C 
ATOM     18  O   ARG A   9      12.595   5.892  16.767  0.00  0.00    -0.273 OA
ATOM     19  N   ASN A  10      11.219   7.220  15.579  0.00  0.00    -0.298 N 
ATOM     20  H   ASN A  10      10.935   8.194  15.351  0.00  0.00    +0.150 HD
BRANCH  19  21
ATOM     21  CA  ASN A  10      10.585   6.086  14.874  0.00  0.00    +0.146 C 
BRANCH  21  22
ATOM     22  C   ASN A  10      11.623   5.234  14.123  0.00  0.00    +0.227 C 
ATOM     23  O   ASN A  10      11.448   4.018  13.994  0.00  0.00    -0.286 OA
ENDBRANCH  21  22
BRANCH  21  24
ATOM     24  CB  ASN A  10       9.447   6.543  13.953  0.00  0.00    +0.112 C 
BRANCH  24  25
ATOM     25  CG  ASN A  10       9.953   7.132  12.649  0.00  0.00    +0.222 C 
ATOM     26  OD1 ASN A  10      10.787   8.045  12.660  0.00  0.00    -0.275 OA
ATOM     27  ND2 ASN A  10       9.472   6.593  11.511  0.00  0.00    -0.329 N 
ATOM     28 HD21 ASN A  10       8.771   5.826  11.555  0.00  0.00    +0.145 HD
ATOM     29 HD22 ASN A  10       9.802   6.944  10.589  0.00  0.00    +0.145 HD
ENDBRANCH  24  25
ENDBRANCH  21  24
ENDBRANCH  19  21
ENDBRANCH  16  17
BRANCH  16  30
ATOM     30  CB  ARG A   9      11.861   8.457  18.517  0.00  0.00    +0.033 C 
BRANCH  30  31
ATOM     31  CG  ARG A   9      12.499   9.436  19.538  0.00  0.00    +0.045 C 
BRANCH  31  32
ATOM     32  CD  ARG A   9      11.673   9.474  20.856  0.00  0.00    +0.174 C 
BRANCH  32  33
ATOM     33  NE  ARG A   9      10.280   9.868  20.606  0.00  0.00    -0.265 N 
ATOM     34  CZ  ARG A   9       9.217   9.057  20.582  0.00  0.00    +0.342 C 
ATOM     35  NH2 ARG A   9       9.329   7.730  20.782  0.00  0.00    -0.292 N 
ATOM     36 HH21 ARG A   9      10.262   7.308  20.962  0.00  0.00    +0.255 HD
ATOM     37 HH22 ARG A   9       8.482   7.127  20.757  0.00  0.00    +0.255 HD
ATOM     38  NH1 ARG A   9       8.020   9.578  20.307  0.00  0.00    -0.292 N 
ATOM     39 HH11 ARG A   9       7.180   8.966  20.283  0.00  0.00    +0.255 HD
ATOM     40 HH12 ARG A   9       7.927  10.596  20.117  0.00  0.00    +0.255 HD
ATOM     41  HE  ARG A   9      10.103  10.878  20.430  0.00  0.00    +0.259 HD
ENDBRANCH  32  33
ENDBRANCH  31  32
ENDBRANCH  30  31
ENDBRANCH  16  30
ENDBRANCH  13  16
ENDBRANCH  11  12
ENDBRANCH   9  11
ENDBRANCH   6   7
BRANCH   6  42
ATOM     42  CB  ILE A   7      17.262  10.281  11.856  0.00  0.00    +0.027 C 
ATOM     43  CG2 ILE A   7      16.832   8.827  12.214  0.00  0.00    +0.002 C 
BRANCH  42  44
ATOM     44  CG1 ILE A   7      18.025  10.409  10.523  0.00  0.00    +0.002 C 
ATOM     45  CD1 ILE A   7      17.153  10.125   9.283  0.00  0.00    +0.000 C 
ENDBRANCH  42  44
ENDBRANCH   6  42
ENDBRANCH   3   6
ENDBRANCH   1   2
BRANCH   1  48
ATOM     46  C   ASN A   5      16.923  16.027   9.125  0.00  0.00    +0.241 C 
ATOM     47  O   ASN A   5      18.022  16.160   9.725  0.00  0.00    -0.273 OA
ATOM     48  N   VAL A   6      15.848  15.481   9.680  0.00  0.00    -0.297 N 
ATOM     49  H   VAL A   6      14.941  15.467   9.172  0.00  0.00    +0.150 HD
BRANCH  46  50
ATOM     50  CA  ASN A   5      16.762  16.543   7.713  0.00  0.00    +0.158 C 
BRANCH  50  53
ATOM     51  C   VAL A   4      16.386  18.902   8.152  0.00  0.00    +0.241 C 
ATOM     52  O   VAL A   4      15.202  18.685   8.402  0.00  0.00    -0.273 OA
ATOM     53  N   ASN A   5      17.198  17.943   7.730  0.00  0.00    -0.297 N 
ATOM     54  H   ASN A   5      18.156  18.186   7.407  0.00  0.00    +0.150 HD
BRANCH  51  55
ATOM     55  CA  VAL A   4      16.971  20.338   8.299  0.00  0.00    +0.149 C 
BRANCH  55  57
ATOM     56  C   PRO A   3      16.138  22.422   7.297  0.00  0.00    +0.241 C 
ATOM     57  N   VAL A   4      15.923  21.349   8.060  0.00  0.00    -0.297 N 
ATOM     58  H   VAL A   4      14.989  21.221   8.499  0.00  0.00    +0.150 HD
ATOM     59  O   PRO A   3      17.224  22.644   6.745  0.00  0.00    -0.273 OA
BRANCH  56  65
ATOM     60  C   THR A   2      13.070  22.025   6.619  0.00  0.00    +0.246 C 
ATOM     61  N   PRO A   3      13.660  22.867   7.480  0.00  0.00    -0.272 N 
ATOM     62  CD  PRO A   3      13.204  23.378   8.786  0.00  0.00    +0.094 C 
ATOM     63  CG  PRO A   3      14.404  24.207   9.257  0.00  0.00    +0.024 C 
ATOM     64  CB  PRO A   3      15.099  24.621   8.055  0.00  0.00    +0.031 C 
ATOM     65  CA  PRO A   3      14.967  23.417   7.114  0.00  0.00    +0.152 C 
ATOM     66  O   THR A   2      13.591  21.718   5.554  0.00  0.00    -0.273 OA
BRANCH  60  67
ATOM     67  CA  THR A   2      11.730  21.397   7.036  0.00  0.00    +0.176 C 
BRANCH  67  70
ATOM     68  C   PRO A   1      10.174  22.341   5.436  0.00  0.00    +0.239 C 
ATOM     69  O   PRO A   1      10.070  23.385   6.074  0.00  0.00    -0.274 OA
ATOM     70  N   THR A   2      10.880  21.300   5.870  0.00  0.00    -0.295 N 
ATOM     71  H   THR A   2      10.819  20.396   5.359  0.00  0.00    +0.150 HD
BRANCH  68  73
ATOM     72  N   PRO A   1       8.610  21.045   4.023  0.00  0.00    -0.210 NA
ATOM     73  CA  PRO A   1       9.503  22.190   4.076  0.00  0.00    +0.149 C 
ATOM     74  CB  PRO A   1       8.567  23.374   3.764  0.00  0.00    +0.028 C 
ATOM     75  CG  PRO A   1       7.237  22.948   4.282  0.00  0.00    +0.021 C 
ATOM     76  CD  PRO A   1       7.186  21.435   4.064  0.00  0.00    +0.089 C 
ENDBRANCH  68  73
ENDBRANCH  67  70
BRANCH  67  77
ATOM     77  CB  THR A   2      11.988  20.008   7.684  0.00  0.00    +0.137 C 
ATOM     78  CG2 THR A   2      12.475  19.002   6.654  0.00  0.00    +0.034 C 
BRANCH  77  79
ATOM     79  OG1 THR A   2      12.963  20.154   8.723  0.00  0.00    -0.382 OA
ATOM     80  HG1 THR A   2      13.133  19.273   9.141  0.00  0.00    +0.210 HD
ENDBRANCH  77  79
ENDBRANCH  67  77
ENDBRANCH  60  67
ENDBRANCH  56  65
ENDBRANCH  55  57
BRANCH  55  81
ATOM     81  CB  VAL A   4      17.613  20.506   9.696  0.00  0.00    +0.027 C 
ATOM     82  CG2 VAL A   4      16.562  20.301  10.791  0.00  0.00    +0.002 C 
ATOM     83  CG1 VAL A   4      18.318  21.891   9.858  0.00  0.00    +0.002 C 
ENDBRANCH  55  81
ENDBRANCH  51  55
ENDBRANCH  50  53
BRANCH  50  84
ATOM     84  CB  ASN A   5      17.650  15.693   6.784  0.00  0.00    +0.114 C 
BRANCH  84  85
ATOM     85  CG  ASN A   5      17.647  16.179   5.342  0.00  0.00    +0.222 C 
ATOM     86  ND2 ASN A   5      16.469  16.431   4.824  0.00  0.00    -0.329 N 
ATOM     87 HD21 ASN A   5      15.610  16.297   5.395  0.00  0.00    +0.145 HD
ATOM     88 HD22 ASN A   5      16.393  16.765   3.842  0.00  0.00    +0.145 HD
ATOM     89  OD1 ASN A   5      18.722  16.324   4.694  0.00  0.00    -0.275 OA
ENDBRANCH  84  85
ENDBRANCH  50  84
ENDBRANCH  46  50
ENDBRANCH   1  48
BRANCH   1  90
ATOM     90  CB  VAL A   6      15.220  15.699  12.154  0.00  0.00    +0.027 C 
ATOM     91  CG2 VAL A   6      13.757  15.536  12.132  0.00  0.00    +0.002 C 
ATOM     92  CG1 VAL A   6      15.556  17.168  12.080  0.00  0.00    +0.002 C 
ENDBRANCH   1  90
TORSDOF 32
REMARK  Name = ../refined-set-2016/3nu9/3nu9_pocket.pdb
REMARK  235 active torsions:
REMARK  status: ('A' for Active; 'I' for Inactive)
REMARK    1  A    between atoms: _1  and  _3
REMARK    2  A    between atoms: _3  and  _4
REMARK    3  A    between atoms: _3  and  _6
REMARK    4  A    between atoms: _6  and  _7
REMARK    5  A    between atoms: _7  and  _8
REMARK    6  A    between atoms: _8  and  _9
REMARK    7  A    between atoms: _18  and  _20
REMARK    8  A    between atoms: _20  and  _21
REMARK    9  A    between atoms: _20  and  _23
REMARK   10  A    between atoms: _23  and  _24
REMARK   11  A    between atoms: _27  and  _29
REMARK   12  A    between atoms: _29  and  _30
REMARK   13  A    between atoms: _29  and  _32
REMARK   14  A    between atoms: _32  and  _33
REMARK   15  A    between atoms: _36  and  _38
REMARK   16  A    between atoms: _38  and  _39
REMARK   17  A    between atoms: _38  and  _41
REMARK   18  A    between atoms: _41  and  _42
REMARK   19  A    between atoms: _45  and  _47
REMARK   20  A    between atoms: _47  and  _48
REMARK   21  A    between atoms: _47  and  _50
REMARK   22  A    between atoms: _50  and  _51
REMARK   23  A    between atoms: _54  and  _56
REMARK   24  A    between atoms: _56  and  _57
REMARK   25  A    between atoms: _59  and  _61
REMARK   26  A    between atoms: _61  and  _62
REMARK   27  A    between atoms: _65  and  _67
REMARK   28  A    between atoms: _67  and  _68
REMARK   29  A    between atoms: _67  and  _70
REMARK   30  A    between atoms: _70  and  _71
REMARK   31  A    between atoms: _74  and  _76
REMARK   32  A    between atoms: _76  and  _77
REMARK   33  A    between atoms: _76  and  _79
REMARK   34  A    between atoms: _79  and  _80
REMARK   35  A    between atoms: _83  and  _85
REMARK   36  A    between atoms: _85  and  _86
REMARK   37  A    between atoms: _85  and  _88
REMARK   38  A    between atoms: _88  and  _89
REMARK   39  A    between atoms: _92  and  _94
REMARK   40  A    between atoms: _94  and  _95
REMARK   41  A    between atoms: _94  and  _97
REMARK   42  A    between atoms: _100  and  _102
REMARK   43  A    between atoms: _102  and  _103
REMARK   44  A    between atoms: _102  and  _105
REMARK   45  A    between atoms: _105  and  _106
REMARK   46  A    between atoms: _109  and  _111
REMARK   47  A    between atoms: _111  and  _112
REMARK   48  A    between atoms: _111  and  _114
REMARK   49  A    between atoms: _114  and  _115
REMARK   50  A    between atoms: _115  and  _116
REMARK   51  A    between atoms: _116  and  _117
REMARK   52  A    between atoms: _117  and  _118
REMARK   53  A    between atoms: _122  and  _124
REMARK   54  A    between atoms: _124  and  _125
REMARK   55  A    between atoms: _124  and  _127
REMARK   56  A    between atoms: _127  and  _128
REMARK   57  A    between atoms: _128  and  _129
REMARK   58  A    between atoms: _131  and  _133
REMARK   59  A    between atoms: _133  and  _134
REMARK   60  A    between atoms: _133  and  _136
REMARK   61  A    between atoms: _136  and  _137
REMARK   62  A    between atoms: _140  and  _142
REMARK   63  A    between atoms: _142  and  _143
REMARK   64  A    between atoms: _145  and  _147
REMARK   65  A    between atoms: _147  and  _148
REMARK   66  A    between atoms: _150  and  _152
REMARK   67  A    between atoms: _152  and  _153
REMARK   68  A    between atoms: _152  and  _155
REMARK   69  A    between atoms: _155  and  _156
REMARK   70  A    between atoms: _159  and  _161
REMARK   71  A    between atoms: _161  and  _162
REMARK   72  A    between atoms: _164  and  _166
REMARK   73  A    between atoms: _166  and  _167
REMARK   74  A    between atoms: _169  and  _171
REMARK   75  A    between atoms: _171  and  _172
REMARK   76  A    between atoms: _171  and  _174
REMARK   77  A    between atoms: _174  and  _175
REMARK   78  A    between atoms: _181  and  _183
REMARK   79  A    between atoms: _183  and  _184
REMARK   80  A    between atoms: _183  and  _186
REMARK   81  A    between atoms: _186  and  _187
REMARK   82  A    between atoms: _190  and  _192
REMARK   83  A    between atoms: _192  and  _193
REMARK   84  A    between atoms: _192  and  _195
REMARK   85  A    between atoms: _198  and  _200
REMARK   86  A    between atoms: _200  and  _201
REMARK   87  A    between atoms: _200  and  _203
REMARK   88  A    between atoms: _203  and  _204
REMARK   89  A    between atoms: _208  and  _209
REMARK   90  A    between atoms: _214  and  _216
REMARK   91  A    between atoms: _216  and  _217
REMARK   92  A    between atoms: _216  and  _219
REMARK   93  A    between atoms: _219  and  _220
REMARK   94  A    between atoms: _224  and  _225
REMARK   95  A    between atoms: _230  and  _232
REMARK   96  A    between atoms: _232  and  _233
REMARK   97  A    between atoms: _232  and  _235
REMARK   98  A    between atoms: _238  and  _240
REMARK   99  A    between atoms: _240  and  _241
REMARK  100  A    between atoms: _240  and  _243
REMARK  101  A    between atoms: _243  and  _244
REMARK  102  A    between atoms: _249  and  _251
REMARK  103  A    between atoms: _251  and  _252
REMARK  104  A    between atoms: _251  and  _254
REMARK  105  A    between atoms: _257  and  _259
REMARK  106  A    between atoms: _259  and  _260
REMARK  107  A    between atoms: _259  and  _262
REMARK  108  A    between atoms: _262  and  _263
REMARK  109  A    between atoms: _266  and  _268
REMARK  110  A    between atoms: _268  and  _269
REMARK  111  A    between atoms: _271  and  _273
REMARK  112  A    between atoms: _273  and  _274
REMARK  113  A    between atoms: _273  and  _276
REMARK  114  A    between atoms: _276  and  _277
REMARK  115  A    between atoms: _277  and  _278
REMARK  116  A    between atoms: _278  and  _279
REMARK  117  A    between atoms: _288  and  _290
REMARK  118  A    between atoms: _290  and  _291
REMARK  119  A    between atoms: _290  and  _293
REMARK  120  A    between atoms: _293  and  _294
REMARK  121  A    between atoms: _299  and  _301
REMARK  122  A    between atoms: _301  and  _302
REMARK  123  A    between atoms: _301  and  _304
REMARK  124  A    between atoms: _304  and  _305
REMARK  125  A    between atoms: _305  and  _306
REMARK  126  A    between atoms: _306  and  _307
REMARK  127  A    between atoms: _316  and  _318
REMARK  128  A    between atoms: _318  and  _319
REMARK  129  A    between atoms: _318  and  _321
REMARK  130  A    between atoms: _321  and  _322
REMARK  131  A    between atoms: _325  and  _327
REMARK  132  A    between atoms: _327  and  _328
REMARK  133  A    between atoms: _327  and  _330
REMARK  134  A    between atoms: _330  and  _331
REMARK  135  A    between atoms: _334  and  _336
REMARK  136  A    between atoms: _336  and  _337
REMARK  137  A    between atoms: _336  and  _339
REMARK  138  A    between atoms: _339  and  _340
REMARK  139  A    between atoms: _343  and  _345
REMARK  140  A    between atoms: _345  and  _346
REMARK  141  A    between atoms: _345  and  _348
REMARK  142  A    between atoms: _348  and  _349
REMARK  143  A    between atoms: _352  and  _354
REMARK  144  A    between atoms: _354  and  _355
REMARK  145  A    between atoms: _357  and  _359
REMARK  146  A    between atoms: _359  and  _360
REMARK  147  A    between atoms: _363  and  _365
REMARK  148  A    between atoms: _365  and  _366
REMARK  149  A    between atoms: _365  and  _368
REMARK  150  A    between atoms: _368  and  _369
REMARK  151  A    between atoms: _372  and  _374
REMARK  152  A    between atoms: _374  and  _375
REMARK  153  A    between atoms: _374  and  _377
REMARK  154  A    between atoms: _377  and  _378
REMARK  155  A    between atoms: _381  and  _383
REMARK  156  A    between atoms: _383  and  _384
REMARK  157  A    between atoms: _383  and  _386
REMARK  158  A    between atoms: _386  and  _387
REMARK  159  A    between atoms: _390  and  _392
REMARK  160  A    between atoms: _392  and  _393
REMARK  161  A    between atoms: _392  and  _395
REMARK  162  A    between atoms: _398  and  _400
REMARK  163  A    between atoms: _400  and  _401
REMARK  164  A    between atoms: _400  and  _403
REMARK  165  A    between atoms: _403  and  _404
REMARK  166  A    between atoms: _407  and  _409
REMARK  167  A    between atoms: _409  and  _410
REMARK  168  A    between atoms: _409  and  _412
REMARK  169  A    between atoms: _412  and  _413
REMARK  170  A    between atoms: _413  and  _414
REMARK  171  A    between atoms: _414  and  _415
REMARK  172  A    between atoms: _415  and  _416
REMARK  173  A    between atoms: _420  and  _422
REMARK  174  A    between atoms: _422  and  _423
REMARK  175  A    between atoms: _422  and  _425
REMARK  176  A    between atoms: _425  and  _426
REMARK  177  A    between atoms: _426  and  _427
REMARK  178  A    between atoms: _429  and  _431
REMARK  179  A    between atoms: _431  and  _432
REMARK  180  A    between atoms: _431  and  _434
REMARK  181  A    between atoms: _434  and  _435
REMARK  182  A    between atoms: _438  and  _440
REMARK  183  A    between atoms: _440  and  _441
REMARK  184  A    between atoms: _443  and  _445
REMARK  185  A    between atoms: _445  and  _446
REMARK  186  A    between atoms: _448  and  _450
REMARK  187  A    between atoms: _450  and  _451
REMARK  188  A    between atoms: _450  and  _453
REMARK  189  A    between atoms: _453  and  _454
REMARK  190  A    between atoms: _457  and  _459
REMARK  191  A    between atoms: _459  and  _460
REMARK  192  A    between atoms: _462  and  _464
REMARK  193  A    between atoms: _464  and  _465
REMARK  194  A    between atoms: _467  and  _469
REMARK  195  A    between atoms: _469  and  _470
REMARK  196  A    between atoms: _469  and  _472
REMARK  197  A    between atoms: _472  and  _473
REMARK  198  A    between atoms: _476  and  _478
REMARK  199  A    between atoms: _478  and  _479
REMARK  200  A    between atoms: _478  and  _481
REMARK  201  A    between atoms: _484  and  _486
REMARK  202  A    between atoms: _486  and  _487
REMARK  203  A    between atoms: _486  and  _489
REMARK  204  A    between atoms: _489  and  _490
REMARK  205  A    between atoms: _493  and  _495
REMARK  206  A    between atoms: _495  and  _496
REMARK  207  A    between atoms: _495  and  _498
REMARK  208  A    between atoms: _498  and  _499
REMARK  209  A    between atoms: _503  and  _504
REMARK  210  A    between atoms: _509  and  _511
REMARK  211  A    between atoms: _511  and  _512
REMARK  212  A    between atoms: _511  and  _514
REMARK  213  A    between atoms: _517  and  _519
REMARK  214  A    between atoms: _519  and  _520
REMARK  215  A    between atoms: _519  and  _522
REMARK  216  A    between atoms: _522  and  _523
REMARK  217  A    between atoms: _528  and  _530
REMARK  218  A    between atoms: _530  and  _531
REMARK  219  A    between atoms: _530  and  _533
REMARK  220  A    between atoms: _536  and  _538
REMARK  221  A    between atoms: _538  and  _539
REMARK  222  A    between atoms: _538  and  _541
REMARK  223  A    between atoms: _541  and  _542
REMARK  224  A    between atoms: _545  and  _547
REMARK  225  A    between atoms: _547  and  _548
REMARK  226  A    between atoms: _550  and  _552
REMARK  227  A    between atoms: _552  and  _553
REMARK  228  A    between atoms: _552  and  _555
REMARK  229  A    between atoms: _555  and  _556
REMARK  230  A    between atoms: _556  and  _557
REMARK  231  A    between atoms: _557  and  _558
REMARK  232  A    between atoms: _567  and  _569
REMARK  233  A    between atoms: _569  and  _570
REMARK  234  A    between atoms: _569  and  _572
REMARK  235  A    between atoms: _572  and  _573
REMARK                            x       y       z     vdW  Elec       q    Type
REMARK                         _______ _______ _______ _____ _____    ______ ____
ROOT
ATOM      1  NE  ARG A   1       5.878  12.828  22.225  0.00  0.00    -0.265 N 
ATOM      2  HE  ARG A   1       5.719  11.883  21.822  0.00  0.00    +0.259 HD
ATOM      3  CZ  ARG A   1       5.121  13.820  21.774  0.00  0.00    +0.342 C 
ATOM      4  NH2 ARG A   1       5.307  15.065  22.225  0.00  0.00    -0.292 N 
ATOM      5 HH21 ARG A   1       6.046  15.257  22.931  0.00  0.00    +0.255 HD
ATOM      6 HH22 ARG A   1       4.712  15.841  21.870  0.00  0.00    +0.255 HD
ATOM      7  NH1 ARG A   1       4.185  13.562  20.859  0.00  0.00    -0.292 N 
ATOM      8 HH11 ARG A   1       4.055  12.592  20.507  0.00  0.00    +0.255 HD
ATOM      9 HH12 ARG A   1       3.585  14.331  20.498  0.00  0.00    +0.255 HD
ENDROOT
BRANCH   1  10
ATOM     10  CD  ARG A   1       6.916  12.958  23.242  0.00  0.00    +0.174 C 
BRANCH  10  11
ATOM     11  CG  ARG A   1       7.746  11.692  23.245  0.00  0.00    +0.045 C 
BRANCH  11  12
ATOM     12  CB  ARG A   1       8.595  11.538  24.495  0.00  0.00    +0.029 C 
BRANCH  12  13
ATOM     13  CA  ARG A   1       9.576  10.364  24.359  0.00  0.00    +0.133 C 
BRANCH  13  14
ATOM     14  N   ARG A   1       8.861   9.068  24.302  0.00  0.00    -0.239 NA
ATOM     15  H   ARG A   1       7.824   9.045  24.372  0.00  0.00    +0.142 HD
ENDBRANCH  13  14
BRANCH  13  16
ATOM     16  C   ARG A   1      10.520  10.359  25.550  0.00  0.00    +0.224 C 
ATOM     17  O   ARG A   1      10.150   9.881  26.607  0.00  0.00    -0.287 OA
ENDBRANCH  13  16
ENDBRANCH  12  13
ENDBRANCH  11  12
ENDBRANCH  10  11
ENDBRANCH   1  10
TORSDOF 6
REMARK  Name = ../refined-set-2016/3nu9/3nu9_pocket.pdb
REMARK  235 active torsions:
REMARK  status: ('A' for Active; 'I' for Inactive)
REMARK    1  A    between atoms: _1  and  _3
REMARK    2  A    between atoms: _3  and  _4
REMARK    3  A    between atoms: _3  and  _6
REMARK    4  A    between atoms: _6  and  _7
REMARK    5  A    between atoms: _7  and  _8
REMARK    6  A    between atoms: _8  and  _9
REMARK    7  A    between atoms: _18  and  _20
REMARK    8  A    between atoms: _20  and  _21
REMARK    9  A    between atoms: _20  and  _23
REMARK   10  A    between atoms: _23  and  _24
REMARK   11  A    between atoms: _27  and  _29
REMARK   12  A    between atoms: _29  and  _30
REMARK   13  A    between atoms: _29  and  _32
REMARK   14  A    between atoms: _32  and  _33
REMARK   15  A    between atoms: _36  and  _38
REMARK   16  A    between atoms: _38  and  _39
REMARK   17  A    between atoms: _38  and  _41
REMARK   18  A    between atoms: _41  and  _42
REMARK   19  A    between atoms: _45  and  _47
REMARK   20  A    between atoms: _47  and  _48
REMARK   21  A    between atoms: _47  and  _50
REMARK   22  A    between atoms: _50  and  _51
REMARK   23  A    between atoms: _54  and  _56
REMARK   24  A    between atoms: _56  and  _57
REMARK   25  A    between atoms: _59  and  _61
REMARK   26  A    between atoms: _61  and  _62
REMARK   27  A    between atoms: _65  and  _67
REMARK   28  A    between atoms: _67  and  _68
REMARK   29  A    between atoms: _67  and  _70
REMARK   30  A    between atoms: _70  and  _71
REMARK   31  A    between atoms: _74  and  _76
REMARK   32  A    between atoms: _76  and  _77
REMARK   33  A    between atoms: _76  and  _79
REMARK   34  A    between atoms: _79  and  _80
REMARK   35  A    between atoms: _83  and  _85
REMARK   36  A    between atoms: _85  and  _86
REMARK   37  A    between atoms: _85  and  _88
REMARK   38  A    between atoms: _88  and  _89
REMARK   39  A    between atoms: _92  and  _94
REMARK   40  A    between atoms: _94  and  _95
REMARK   41  A    between atoms: _94  and  _97
REMARK   42  A    between atoms: _100  and  _102
REMARK   43  A    between atoms: _102  and  _103
REMARK   44  A    between atoms: _102  and  _105
REMARK   45  A    between atoms: _105  and  _106
REMARK   46  A    between atoms: _109  and  _111
REMARK   47  A    between atoms: _111  and  _112
REMARK   48  A    between atoms: _111  and  _114
REMARK   49  A    between atoms: _114  and  _115
REMARK   50  A    between atoms: _115  and  _116
REMARK   51  A    between atoms: _116  and  _117
REMARK   52  A    between atoms: _117  and  _118
REMARK   53  A    between atoms: _122  and  _124
REMARK   54  A    between atoms: _124  and  _125
REMARK   55  A    between atoms: _124  and  _127
REMARK   56  A    between atoms: _127  and  _128
REMARK   57  A    between atoms: _128  and  _129
REMARK   58  A    between atoms: _131  and  _133
REMARK   59  A    between atoms: _133  and  _134
REMARK   60  A    between atoms: _133  and  _136
REMARK   61  A    between atoms: _136  and  _137
REMARK   62  A    between atoms: _140  and  _142
REMARK   63  A    between atoms: _142  and  _143
REMARK   64  A    between atoms: _145  and  _147
REMARK   65  A    between atoms: _147  and  _148
REMARK   66  A    between atoms: _150  and  _152
REMARK   67  A    between atoms: _152  and  _153
REMARK   68  A    between atoms: _152  and  _155
REMARK   69  A    between atoms: _155  and  _156
REMARK   70  A    between atoms: _159  and  _161
REMARK   71  A    between atoms: _161  and  _162
REMARK   72  A    between atoms: _164  and  _166
REMARK   73  A    between atoms: _166  and  _167
REMARK   74  A    between atoms: _169  and  _171
REMARK   75  A    between atoms: _171  and  _172
REMARK   76  A    between atoms: _171  and  _174
REMARK   77  A    between atoms: _174  and  _175
REMARK   78  A    between atoms: _181  and  _183
REMARK   79  A    between atoms: _183  and  _184
REMARK   80  A    between atoms: _183  and  _186
REMARK   81  A    between atoms: _186  and  _187
REMARK   82  A    between atoms: _190  and  _192
REMARK   83  A    between atoms: _192  and  _193
REMARK   84  A    between atoms: _192  and  _195
REMARK   85  A    between atoms: _198  and  _200
REMARK   86  A    between atoms: _200  and  _201
REMARK   87  A    between atoms: _200  and  _203
REMARK   88  A    between atoms: _203  and  _204
REMARK   89  A    between atoms: _208  and  _209
REMARK   90  A    between atoms: _214  and  _216
REMARK   91  A    between atoms: _216  and  _217
REMARK   92  A    between atoms: _216  and  _219
REMARK   93  A    between atoms: _219  and  _220
REMARK   94  A    between atoms: _224  and  _225
REMARK   95  A    between atoms: _230  and  _232
REMARK   96  A    between atoms: _232  and  _233
REMARK   97  A    between atoms: _232  and  _235
REMARK   98  A    between atoms: _238  and  _240
REMARK   99  A    between atoms: _240  and  _241
REMARK  100  A    between atoms: _240  and  _243
REMARK  101  A    between atoms: _243  and  _244
REMARK  102  A    between atoms: _249  and  _251
REMARK  103  A    between atoms: _251  and  _252
REMARK  104  A    between atoms: _251  and  _254
REMARK  105  A    between atoms: _257  and  _259
REMARK  106  A    between atoms: _259  and  _260
REMARK  107  A    between atoms: _259  and  _262
REMARK  108  A    between atoms: _262  and  _263
REMARK  109  A    between atoms: _266  and  _268
REMARK  110  A    between atoms: _268  and  _269
REMARK  111  A    between atoms: _271  and  _273
REMARK  112  A    between atoms: _273  and  _274
REMARK  113  A    between atoms: _273  and  _276
REMARK  114  A    between atoms: _276  and  _277
REMARK  115  A    between atoms: _277  and  _278
REMARK  116  A    between atoms: _278  and  _279
REMARK  117  A    between atoms: _288  and  _290
REMARK  118  A    between atoms: _290  and  _291
REMARK  119  A    between atoms: _290  and  _293
REMARK  120  A    between atoms: _293  and  _294
REMARK  121  A    between atoms: _299  and  _301
REMARK  122  A    between atoms: _301  and  _302
REMARK  123  A    between atoms: _301  and  _304
REMARK  124  A    between atoms: _304  and  _305
REMARK  125  A    between atoms: _305  and  _306
REMARK  126  A    between atoms: _306  and  _307
REMARK  127  A    between atoms: _316  and  _318
REMARK  128  A    between atoms: _318  and  _319
REMARK  129  A    between atoms: _318  and  _321
REMARK  130  A    between atoms: _321  and  _322
REMARK  131  A    between atoms: _325  and  _327
REMARK  132  A    between atoms: _327  and  _328
REMARK  133  A    between atoms: _327  and  _330
REMARK  134  A    between atoms: _330  and  _331
REMARK  135  A    between atoms: _334  and  _336
REMARK  136  A    between atoms: _336  and  _337
REMARK  137  A    between atoms: _336  and  _339
REMARK  138  A    between atoms: _339  and  _340
REMARK  139  A    between atoms: _343  and  _345
REMARK  140  A    between atoms: _345  and  _346
REMARK  141  A    between atoms: _345  and  _348
REMARK  142  A    between atoms: _348  and  _349
REMARK  143  A    between atoms: _352  and  _354
REMARK  144  A    between atoms: _354  and  _355
REMARK  145  A    between atoms: _357  and  _359
REMARK  146  A    between atoms: _359  and  _360
REMARK  147  A    between atoms: _363  and  _365
REMARK  148  A    between atoms: _365  and  _366
REMARK  149  A    between atoms: _365  and  _368
REMARK  150  A    between atoms: _368  and  _369
REMARK  151  A    between atoms: _372  and  _374
REMARK  152  A    between atoms: _374  and  _375
REMARK  153  A    between atoms: _374  and  _377
REMARK  154  A    between atoms: _377  and  _378
REMARK  155  A    between atoms: _381  and  _383
REMARK  156  A    between atoms: _383  and  _384
REMARK  157  A    between atoms: _383  and  _386
REMARK  158  A    between atoms: _386  and  _387
REMARK  159  A    between atoms: _390  and  _392
REMARK  160  A    between atoms: _392  and  _393
REMARK  161  A    between atoms: _392  and  _395
REMARK  162  A    between atoms: _398  and  _400
REMARK  163  A    between atoms: _400  and  _401
REMARK  164  A    between atoms: _400  and  _403
REMARK  165  A    between atoms: _403  and  _404
REMARK  166  A    between atoms: _407  and  _409
REMARK  167  A    between atoms: _409  and  _410
REMARK  168  A    between atoms: _409  and  _412
REMARK  169  A    between atoms: _412  and  _413
REMARK  170  A    between atoms: _413  and  _414
REMARK  171  A    between atoms: _414  and  _415
REMARK  172  A    between atoms: _415  and  _416
REMARK  173  A    between atoms: _420  and  _422
REMARK  174  A    between atoms: _422  and  _423
REMARK  175  A    between atoms: _422  and  _425
REMARK  176  A    between atoms: _425  and  _426
REMARK  177  A    between atoms: _426  and  _427
REMARK  178  A    between atoms: _429  and  _431
REMARK  179  A    between atoms: _431  and  _432
REMARK  180  A    between atoms: _431  and  _434
REMARK  181  A    between atoms: _434  and  _435
REMARK  182  A    between atoms: _438  and  _440
REMARK  183  A    between atoms: _440  and  _441
REMARK  184  A    between atoms: _443  and  _445
REMARK  185  A    between atoms: _445  and  _446
REMARK  186  A    between atoms: _448  and  _450
REMARK  187  A    between atoms: _450  and  _451
REMARK  188  A    between atoms: _450  and  _453
REMARK  189  A    between atoms: _453  and  _454
REMARK  190  A    between atoms: _457  and  _459
REMARK  191  A    between atoms: _459  and  _460
REMARK  192  A    between atoms: _462  and  _464
REMARK  193  A    between atoms: _464  and  _465
REMARK  194  A    between atoms: _467  and  _469
REMARK  195  A    between atoms: _469  and  _470
REMARK  196  A    between atoms: _469  and  _472
REMARK  197  A    between atoms: _472  and  _473
REMARK  198  A    between atoms: _476  and  _478
REMARK  199  A    between atoms: _478  and  _479
REMARK  200  A    between atoms: _478  and  _481
REMARK  201  A    between atoms: _484  and  _486
REMARK  202  A    between atoms: _486  and  _487
REMARK  203  A    between atoms: _486  and  _489
REMARK  204  A    between atoms: _489  and  _490
REMARK  205  A    between atoms: _493  and  _495
REMARK  206  A    between atoms: _495  and  _496
REMARK  207  A    between atoms: _495  and  _498
REMARK  208  A    between atoms: _498  and  _499
REMARK  209  A    between atoms: _503  and  _504
REMARK  210  A    between atoms: _509  and  _511
REMARK  211  A    between atoms: _511  and  _512
REMARK  212  A    between atoms: _511  and  _514
REMARK  213  A    between atoms: _517  and  _519
REMARK  214  A    between atoms: _519  and  _520
REMARK  215  A    between atoms: _519  and  _522
REMARK  216  A    between atoms: _522  and  _523
REMARK  217  A    between atoms: _528  and  _530
REMARK  218  A    between atoms: _530  and  _531
REMARK  219  A    between atoms: _530  and  _533
REMARK  220  A    between atoms: _536  and  _538
REMARK  221  A    between atoms: _538  and  _539
REMARK  222  A    between atoms: _538  and  _541
REMARK  223  A    between atoms: _541  and  _542
REMARK  224  A    between atoms: _545  and  _547
REMARK  225  A    between atoms: _547  and  _548
REMARK  226  A    between atoms: _550  and  _552
REMARK  227  A    between atoms: _552  and  _553
REMARK  228  A    between atoms: _552  and  _555
REMARK  229  A    between atoms: _555  and  _556
REMARK  230  A    between atoms: _556  and  _557
REMARK  231  A    between atoms: _557  and  _558
REMARK  232  A    between atoms: _567  and  _569
REMARK  233  A    between atoms: _569  and  _570
REMARK  234  A    between atoms: _569  and  _572
REMARK  235  A    between atoms: _572  and  _573
REMARK                            x       y       z     vdW  Elec       q    Type
REMARK                         _______ _______ _______ _____ _____    ______ ____
ROOT
ATOM      1  C   ALA A   6      19.499  21.695  20.291  0.00  0.00    +0.241 C 
ATOM      2  O   ALA A   6      20.151  21.084  21.113  0.00  0.00    -0.273 OA
ATOM      3  N   ASP A   7      19.995  22.772  19.678  0.00  0.00    -0.297 N 
ATOM      4  H   ASP A   7      19.461  23.244  18.920  0.00  0.00    +0.150 HD
ENDROOT
BRANCH   1   5
ATOM      5  CA  ALA A   6      18.133  21.179  19.879  0.00  0.00    +0.149 C 
ATOM      6  CB  ALA A   6      17.120  21.279  21.038  0.00  0.00    +0.031 C 
BRANCH   5   8
ATOM      7  C   GLY A   5      18.229  19.470  18.128  0.00  0.00    +0.243 C 
ATOM      8  N   ALA A   6      18.246  19.791  19.424  0.00  0.00    -0.297 N 
ATOM      9  H   ALA A   6      18.342  19.034  20.131  0.00  0.00    +0.150 HD
ATOM     10  O   GLY A   5      18.132  20.319  17.221  0.00  0.00    -0.273 OA
BRANCH   7  11
ATOM     11  CA  GLY A   5      18.293  17.976  17.789  0.00  0.00    +0.176 C 
BRANCH  11  14
ATOM     12  C   THR A   4      19.671  16.909  19.491  0.00  0.00    +0.243 C 
ATOM     13  O   THR A   4      20.692  17.423  19.027  0.00  0.00    -0.273 OA
ATOM     14  N   GLY A   5      18.479  17.068  18.945  0.00  0.00    -0.295 N 
ATOM     15  H   GLY A   5      17.663  16.551  19.330  0.00  0.00    +0.150 HD
BRANCH  12  16
ATOM     16  CA  THR A   4      19.745  16.043  20.745  0.00  0.00    +0.176 C 
BRANCH  16  19
ATOM     17  C   ASP A   3      17.900  16.953  22.040  0.00  0.00    +0.241 C 
ATOM     18  O   ASP A   3      18.392  18.077  22.020  0.00  0.00    -0.273 OA
ATOM     19  N   THR A   4      18.482  15.903  21.456  0.00  0.00    -0.295 N 
ATOM     20  H   THR A   4      18.026  14.970  21.510  0.00  0.00    +0.150 HD
BRANCH  17  21
ATOM     21  CA  ASP A   3      16.556  16.730  22.711  0.00  0.00    +0.160 C 
BRANCH  21  23
ATOM     22  C   LEU A   2      16.138  15.356  24.665  0.00  0.00    +0.241 C 
ATOM     23  N   ASP A   3      16.717  16.430  24.121  0.00  0.00    -0.297 N 
ATOM     24  H   ASP A   3      17.291  17.060  24.717  0.00  0.00    +0.150 HD
ATOM     25  O   LEU A   2      15.725  14.415  23.981  0.00  0.00    -0.273 OA
BRANCH  22  26
ATOM     26  CA  LEU A   2      15.983  15.364  26.198  0.00  0.00    +0.149 C 
BRANCH  26  28
ATOM     27  C   LEU A   1      13.890  16.591  26.413  0.00  0.00    +0.238 C 
ATOM     28  N   LEU A   2      14.563  15.458  26.567  0.00  0.00    -0.297 N 
ATOM     29  H   LEU A   2      14.079  14.623  26.955  0.00  0.00    +0.150 HD
ATOM     30  O   LEU A   1      14.439  17.652  26.106  0.00  0.00    -0.274 OA
BRANCH  27  31
ATOM     31  CA  LEU A   1      12.374  16.531  26.612  0.00  0.00    +0.145 C 
BRANCH  31  32
ATOM     32  N   LEU A   1      11.967  17.501  27.623  0.00  0.00    -0.238 NA
ATOM     33  H   LEU A   1      11.796  18.481  27.319  0.00  0.00    +0.142 HD
ENDBRANCH  31  32
BRANCH  31  34
ATOM     34  CB  LEU A   1      11.658  16.883  25.309  0.00  0.00    +0.026 C 
BRANCH  34  35
ATOM     35  CG  LEU A   1      11.692  15.984  24.089  0.00  0.00    +0.002 C 
ATOM     36  CD2 LEU A   1      10.948  14.650  24.390  0.00  0.00    +0.000 C 
ATOM     37  CD1 LEU A   1      11.029  16.735  22.958  0.00  0.00    +0.000 C 
ENDBRANCH  34  35
ENDBRANCH  31  34
ENDBRANCH  27  31
ENDBRANCH  26  28
BRANCH  26  38
ATOM     38  CB  LEU A   2      16.612  14.136  26.837  0.00  0.00    +0.029 C 
BRANCH  38  39
ATOM     39  CG  LEU A   2      16.584  14.069  28.354  0.00  0.00    +0.002 C 
ATOM     40  CD2 LEU A   2      17.158  15.336  29.028  0.00  0.00    +0.000 C 
ATOM     41  CD1 LEU A   2      17.337  12.806  28.812  0.00  0.00    +0.000 C 
ENDBRANCH  38  39
ENDBRANCH  26  38
ENDBRANCH  22  26
ENDBRANCH  21  23
BRANCH  21  42
ATOM     42  CB  ASP A   3      15.686  17.998  22.573  0.00  0.00    +0.143 C 
BRANCH  42  43
ATOM     43  CG  ASP A   3      15.201  18.250  21.143  0.00  0.00    +0.367 C 
ATOM     44  OD2 ASP A   3      14.305  19.111  20.996  0.00  0.00    -0.246 OA
ATOM     45  OD1 ASP A   3      15.708  17.624  20.165  0.00  0.00    -0.246 OA
ENDBRANCH  42  43
ENDBRANCH  21  42
ENDBRANCH  17  21
ENDBRANCH  16  19
BRANCH  16  46
ATOM     46  CB  THR A   4      20.329  14.665  20.365  0.00  0.00    +0.137 C 
ATOM     47  CG2 THR A   4      20.626  13.855  21.641  0.00  0.00    +0.034 C 
BRANCH  46  48
ATOM     48  OG1 THR A   4      19.354  13.968  19.581  0.00  0.00    -0.382 OA
ATOM     49  HG1 THR A   4      19.154  14.491  18.764  0.00  0.00    +0.210 HD
ENDBRANCH  46  48
ENDBRANCH  16  46
ENDBRANCH  12  16
ENDBRANCH  11  14
ENDBRANCH   7  11
ENDBRANCH   5   8
ENDBRANCH   1   5
BRANCH   3  50
ATOM     50  CA  ASP A   7      21.321  23.282  20.099  0.00  0.00    +0.160 C 
BRANCH  50  51
ATOM     51  C   ASP A   7      21.241  23.800  21.537  0.00  0.00    +0.241 C 
ATOM     52  O   ASP A   7      22.201  23.680  22.321  0.00  0.00    -0.273 OA
ATOM     53  N   ASP A   8      20.089  24.402  21.851  0.00  0.00    -0.297 N 
ATOM     54  H   ASP A   8      19.286  24.306  21.198  0.00  0.00    +0.150 HD
BRANCH  53  55
ATOM     55  CA  ASP A   8      19.905  25.188  23.067  0.00  0.00    +0.160 C 
BRANCH  55  56
ATOM     56  C   ASP A   8      18.724  24.642  23.877  0.00  0.00    +0.241 C 
ATOM     57  N   THR A   9      18.640  25.111  25.115  0.00  0.00    -0.295 N 
ATOM     58  H   THR A   9      19.316  25.841  25.417  0.00  0.00    +0.150 HD
ATOM     59  O   ASP A   8      17.909  23.831  23.389  0.00  0.00    -0.273 OA
BRANCH  57  60
ATOM     60  CA  THR A   9      17.649  24.651  26.062  0.00  0.00    +0.176 C 
BRANCH  60  61
ATOM     61  C   THR A   9      16.594  25.737  26.128  0.00  0.00    +0.243 C 
ATOM     62  O   THR A   9      16.915  26.913  26.346  0.00  0.00    -0.273 OA
ATOM     63  N   VAL A  10      15.336  25.343  25.938  0.00  0.00    -0.297 N 
ATOM     64  H   VAL A  10      15.132  24.331  25.809  0.00  0.00    +0.150 HD
BRANCH  63  65
ATOM     65  CA  VAL A  10      14.239  26.304  25.908  0.00  0.00    +0.149 C 
BRANCH  65  66
ATOM     66  C   VAL A  10      13.148  25.813  26.839  0.00  0.00    +0.241 C 
ATOM     67  N   ILE A  11      12.719  26.682  27.730  0.00  0.00    -0.298 N 
ATOM     68  H   ILE A  11      13.136  27.635  27.736  0.00  0.00    +0.150 HD
ATOM     69  O   VAL A  10      12.712  24.668  26.742  0.00  0.00    -0.273 OA
BRANCH  67  70
ATOM     70  CA  ILE A  11      11.695  26.370  28.700  0.00  0.00    +0.137 C 
BRANCH  70  71
ATOM     71  CB  ILE A  11      12.310  26.268  30.113  0.00  0.00    +0.026 C 
ATOM     72  CG2 ILE A  11      11.264  25.908  31.148  0.00  0.00    +0.002 C 
BRANCH  71  73
ATOM     73  CG1 ILE A  11      13.402  25.176  30.088  0.00  0.00    +0.002 C 
ATOM     74  CD1 ILE A  11      14.123  24.973  31.387  0.00  0.00    +0.000 C 
ENDBRANCH  71  73
ENDBRANCH  70  71
BRANCH  70  75
ATOM     75  C   ILE A  11      10.561  27.398  28.608  0.00  0.00    +0.227 C 
ATOM     76  O   ILE A  11      10.806  28.564  28.286  0.00  0.00    -0.286 OA
ENDBRANCH  70  75
ENDBRANCH  67  70
ENDBRANCH  65  66
BRANCH  65  77
ATOM     77  CB  VAL A  10      13.580  26.469  24.536  0.00  0.00    +0.027 C 
ATOM     78  CG2 VAL A  10      12.558  27.636  24.616  0.00  0.00    +0.002 C 
ATOM     79  CG1 VAL A  10      14.596  26.746  23.425  0.00  0.00    +0.002 C 
ENDBRANCH  65  77
ENDBRANCH  63  65
ENDBRANCH  60  61
BRANCH  60  80
ATOM     80  CB  THR A   9      18.300  24.408  27.454  0.00  0.00    +0.137 C 
ATOM     81  CG2 THR A   9      17.248  24.185  28.585  0.00  0.00    +0.034 C 
BRANCH  80  82
ATOM     82  OG1 THR A   9      19.157  23.279  27.369  0.00  0.00    -0.382 OA
ATOM     83  HG1 THR A   9      19.861  23.451  26.695  0.00  0.00    +0.210 HD
ENDBRANCH  80  82
ENDBRANCH  60  80
ENDBRANCH  57  60
ENDBRANCH  55  56
BRANCH  55  84
ATOM     84  CB  ASP A   8      19.638  26.673  22.748  0.00  0.00    +0.143 C 
BRANCH  84  85
ATOM     85  CG  ASP A   8      20.514  27.232  21.651  0.00  0.00    +0.367 C 
ATOM     86  OD2 ASP A   8      21.759  27.100  21.724  0.00  0.00    -0.246 OA
ATOM     87  OD1 ASP A   8      19.943  27.844  20.706  0.00  0.00    -0.246 OA
ENDBRANCH  84  85
ENDBRANCH  55  84
ENDBRANCH  53  55
ENDBRANCH  50  51
BRANCH  50  88
ATOM     88  CB  ASP A   7      21.815  24.423  19.186  0.00  0.00    +0.143 C 
BRANCH  88  89
ATOM     89  CG  ASP A   7      21.980  24.003  17.719  0.00  0.00    +0.367 C 
ATOM     90  OD2 ASP A   7      22.360  22.850  17.416  0.00  0.00    -0.246 OA
ATOM     91  OD1 ASP A   7      21.762  24.872  16.842  0.00  0.00    -0.246 OA
ENDBRANCH  88  89
ENDBRANCH  50  88
ENDBRANCH   3  50
TORSDOF 39
REMARK  Name = ../refined-set-2016/3nu9/3nu9_pocket.pdb
REMARK  235 active torsions:
REMARK  status: ('A' for Active; 'I' for Inactive)
REMARK    1  A    between atoms: _1  and  _3
REMARK    2  A    between atoms: _3  and  _4
REMARK    3  A    between atoms: _3  and  _6
REMARK    4  A    between atoms: _6  and  _7
REMARK    5  A    between atoms: _7  and  _8
REMARK    6  A    between atoms: _8  and  _9
REMARK    7  A    between atoms: _18  and  _20
REMARK    8  A    between atoms: _20  and  _21
REMARK    9  A    between atoms: _20  and  _23
REMARK   10  A    between atoms: _23  and  _24
REMARK   11  A    between atoms: _27  and  _29
REMARK   12  A    between atoms: _29  and  _30
REMARK   13  A    between atoms: _29  and  _32
REMARK   14  A    between atoms: _32  and  _33
REMARK   15  A    between atoms: _36  and  _38
REMARK   16  A    between atoms: _38  and  _39
REMARK   17  A    between atoms: _38  and  _41
REMARK   18  A    between atoms: _41  and  _42
REMARK   19  A    between atoms: _45  and  _47
REMARK   20  A    between atoms: _47  and  _48
REMARK   21  A    between atoms: _47  and  _50
REMARK   22  A    between atoms: _50  and  _51
REMARK   23  A    between atoms: _54  and  _56
REMARK   24  A    between atoms: _56  and  _57
REMARK   25  A    between atoms: _59  and  _61
REMARK   26  A    between atoms: _61  and  _62
REMARK   27  A    between atoms: _65  and  _67
REMARK   28  A    between atoms: _67  and  _68
REMARK   29  A    between atoms: _67  and  _70
REMARK   30  A    between atoms: _70  and  _71
REMARK   31  A    between atoms: _74  and  _76
REMARK   32  A    between atoms: _76  and  _77
REMARK   33  A    between atoms: _76  and  _79
REMARK   34  A    between atoms: _79  and  _80
REMARK   35  A    between atoms: _83  and  _85
REMARK   36  A    between atoms: _85  and  _86
REMARK   37  A    between atoms: _85  and  _88
REMARK   38  A    between atoms: _88  and  _89
REMARK   39  A    between atoms: _92  and  _94
REMARK   40  A    between atoms: _94  and  _95
REMARK   41  A    between atoms: _94  and  _97
REMARK   42  A    between atoms: _100  and  _102
REMARK   43  A    between atoms: _102  and  _103
REMARK   44  A    between atoms: _102  and  _105
REMARK   45  A    between atoms: _105  and  _106
REMARK   46  A    between atoms: _109  and  _111
REMARK   47  A    between atoms: _111  and  _112
REMARK   48  A    between atoms: _111  and  _114
REMARK   49  A    between atoms: _114  and  _115
REMARK   50  A    between atoms: _115  and  _116
REMARK   51  A    between atoms: _116  and  _117
REMARK   52  A    between atoms: _117  and  _118
REMARK   53  A    between atoms: _122  and  _124
REMARK   54  A    between atoms: _124  and  _125
REMARK   55  A    between atoms: _124  and  _127
REMARK   56  A    between atoms: _127  and  _128
REMARK   57  A    between atoms: _128  and  _129
REMARK   58  A    between atoms: _131  and  _133
REMARK   59  A    between atoms: _133  and  _134
REMARK   60  A    between atoms: _133  and  _136
REMARK   61  A    between atoms: _136  and  _137
REMARK   62  A    between atoms: _140  and  _142
REMARK   63  A    between atoms: _142  and  _143
REMARK   64  A    between atoms: _145  and  _147
REMARK   65  A    between atoms: _147  and  _148
REMARK   66  A    between atoms: _150  and  _152
REMARK   67  A    between atoms: _152  and  _153
REMARK   68  A    between atoms: _152  and  _155
REMARK   69  A    between atoms: _155  and  _156
REMARK   70  A    between atoms: _159  and  _161
REMARK   71  A    between atoms: _161  and  _162
REMARK   72  A    between atoms: _164  and  _166
REMARK   73  A    between atoms: _166  and  _167
REMARK   74  A    between atoms: _169  and  _171
REMARK   75  A    between atoms: _171  and  _172
REMARK   76  A    between atoms: _171  and  _174
REMARK   77  A    between atoms: _174  and  _175
REMARK   78  A    between atoms: _181  and  _183
REMARK   79  A    between atoms: _183  and  _184
REMARK   80  A    between atoms: _183  and  _186
REMARK   81  A    between atoms: _186  and  _187
REMARK   82  A    between atoms: _190  and  _192
REMARK   83  A    between atoms: _192  and  _193
REMARK   84  A    between atoms: _192  and  _195
REMARK   85  A    between atoms: _198  and  _200
REMARK   86  A    between atoms: _200  and  _201
REMARK   87  A    between atoms: _200  and  _203
REMARK   88  A    between atoms: _203  and  _204
REMARK   89  A    between atoms: _208  and  _209
REMARK   90  A    between atoms: _214  and  _216
REMARK   91  A    between atoms: _216  and  _217
REMARK   92  A    between atoms: _216  and  _219
REMARK   93  A    between atoms: _219  and  _220
REMARK   94  A    between atoms: _224  and  _225
REMARK   95  A    between atoms: _230  and  _232
REMARK   96  A    between atoms: _232  and  _233
REMARK   97  A    between atoms: _232  and  _235
REMARK   98  A    between atoms: _238  and  _240
REMARK   99  A    between atoms: _240  and  _241
REMARK  100  A    between atoms: _240  and  _243
REMARK  101  A    between atoms: _243  and  _244
REMARK  102  A    between atoms: _249  and  _251
REMARK  103  A    between atoms: _251  and  _252
REMARK  104  A    between atoms: _251  and  _254
REMARK  105  A    between atoms: _257  and  _259
REMARK  106  A    between atoms: _259  and  _260
REMARK  107  A    between atoms: _259  and  _262
REMARK  108  A    between atoms: _262  and  _263
REMARK  109  A    between atoms: _266  and  _268
REMARK  110  A    between atoms: _268  and  _269
REMARK  111  A    between atoms: _271  and  _273
REMARK  112  A    between atoms: _273  and  _274
REMARK  113  A    between atoms: _273  and  _276
REMARK  114  A    between atoms: _276  and  _277
REMARK  115  A    between atoms: _277  and  _278
REMARK  116  A    between atoms: _278  and  _279
REMARK  117  A    between atoms: _288  and  _290
REMARK  118  A    between atoms: _290  and  _291
REMARK  119  A    between atoms: _290  and  _293
REMARK  120  A    between atoms: _293  and  _294
REMARK  121  A    between atoms: _299  and  _301
REMARK  122  A    between atoms: _301  and  _302
REMARK  123  A    between atoms: _301  and  _304
REMARK  124  A    between atoms: _304  and  _305
REMARK  125  A    between atoms: _305  and  _306
REMARK  126  A    between atoms: _306  and  _307
REMARK  127  A    between atoms: _316  and  _318
REMARK  128  A    between atoms: _318  and  _319
REMARK  129  A    between atoms: _318  and  _321
REMARK  130  A    between atoms: _321  and  _322
REMARK  131  A    between atoms: _325  and  _327
REMARK  132  A    between atoms: _327  and  _328
REMARK  133  A    between atoms: _327  and  _330
REMARK  134  A    between atoms: _330  and  _331
REMARK  135  A    between atoms: _334  and  _336
REMARK  136  A    between atoms: _336  and  _337
REMARK  137  A    between atoms: _336  and  _339
REMARK  138  A    between atoms: _339  and  _340
REMARK  139  A    between atoms: _343  and  _345
REMARK  140  A    between atoms: _345  and  _346
REMARK  141  A    between atoms: _345  and  _348
REMARK  142  A    between atoms: _348  and  _349
REMARK  143  A    between atoms: _352  and  _354
REMARK  144  A    between atoms: _354  and  _355
REMARK  145  A    between atoms: _357  and  _359
REMARK  146  A    between atoms: _359  and  _360
REMARK  147  A    between atoms: _363  and  _365
REMARK  148  A    between atoms: _365  and  _366
REMARK  149  A    between atoms: _365  and  _368
REMARK  150  A    between atoms: _368  and  _369
REMARK  151  A    between atoms: _372  and  _374
REMARK  152  A    between atoms: _374  and  _375
REMARK  153  A    between atoms: _374  and  _377
REMARK  154  A    between atoms: _377  and  _378
REMARK  155  A    between atoms: _381  and  _383
REMARK  156  A    between atoms: _383  and  _384
REMARK  157  A    between atoms: _383  and  _386
REMARK  158  A    between atoms: _386  and  _387
REMARK  159  A    between atoms: _390  and  _392
REMARK  160  A    between atoms: _392  and  _393
REMARK  161  A    between atoms: _392  and  _395
REMARK  162  A    between atoms: _398  and  _400
REMARK  163  A    between atoms: _400  and  _401
REMARK  164  A    between atoms: _400  and  _403
REMARK  165  A    between atoms: _403  and  _404
REMARK  166  A    between atoms: _407  and  _409
REMARK  167  A    between atoms: _409  and  _410
REMARK  168  A    between atoms: _409  and  _412
REMARK  169  A    between atoms: _412  and  _413
REMARK  170  A    between atoms: _413  and  _414
REMARK  171  A    between atoms: _414  and  _415
REMARK  172  A    between atoms: _415  and  _416
REMARK  173  A    between atoms: _420  and  _422
REMARK  174  A    between atoms: _422  and  _423
REMARK  175  A    between atoms: _422  and  _425
REMARK  176  A    between atoms: _425  and  _426
REMARK  177  A    between atoms: _426  and  _427
REMARK  178  A    between atoms: _429  and  _431
REMARK  179  A    between atoms: _431  and  _432
REMARK  180  A    between atoms: _431  and  _434
REMARK  181  A    between atoms: _434  and  _435
REMARK  182  A    between atoms: _438  and  _440
REMARK  183  A    between atoms: _440  and  _441
REMARK  184  A    between atoms: _443  and  _445
REMARK  185  A    between atoms: _445  and  _446
REMARK  186  A    between atoms: _448  and  _450
REMARK  187  A    between atoms: _450  and  _451
REMARK  188  A    between atoms: _450  and  _453
REMARK  189  A    between atoms: _453  and  _454
REMARK  190  A    between atoms: _457  and  _459
REMARK  191  A    between atoms: _459  and  _460
REMARK  192  A    between atoms: _462  and  _464
REMARK  193  A    between atoms: _464  and  _465
REMARK  194  A    between atoms: _467  and  _469
REMARK  195  A    between atoms: _469  and  _470
REMARK  196  A    between atoms: _469  and  _472
REMARK  197  A    between atoms: _472  and  _473
REMARK  198  A    between atoms: _476  and  _478
REMARK  199  A    between atoms: _478  and  _479
REMARK  200  A    between atoms: _478  and  _481
REMARK  201  A    between atoms: _484  and  _486
REMARK  202  A    between atoms: _486  and  _487
REMARK  203  A    between atoms: _486  and  _489
REMARK  204  A    between atoms: _489  and  _490
REMARK  205  A    between atoms: _493  and  _495
REMARK  206  A    between atoms: _495  and  _496
REMARK  207  A    between atoms: _495  and  _498
REMARK  208  A    between atoms: _498  and  _499
REMARK  209  A    between atoms: _503  and  _504
REMARK  210  A    between atoms: _509  and  _511
REMARK  211  A    between atoms: _511  and  _512
REMARK  212  A    between atoms: _511  and  _514
REMARK  213  A    between atoms: _517  and  _519
REMARK  214  A    between atoms: _519  and  _520
REMARK  215  A    between atoms: _519  and  _522
REMARK  216  A    between atoms: _522  and  _523
REMARK  217  A    between atoms: _528  and  _530
REMARK  218  A    between atoms: _530  and  _531
REMARK  219  A    between atoms: _530  and  _533
REMARK  220  A    between atoms: _536  and  _538
REMARK  221  A    between atoms: _538  and  _539
REMARK  222  A    between atoms: _538  and  _541
REMARK  223  A    between atoms: _541  and  _542
REMARK  224  A    between atoms: _545  and  _547
REMARK  225  A    between atoms: _547  and  _548
REMARK  226  A    between atoms: _550  and  _552
REMARK  227  A    between atoms: _552  and  _553
REMARK  228  A    between atoms: _552  and  _555
REMARK  229  A    between atoms: _555  and  _556
REMARK  230  A    between atoms: _556  and  _557
REMARK  231  A    between atoms: _557  and  _558
REMARK  232  A    between atoms: _567  and  _569
REMARK  233  A    between atoms: _569  and  _570
REMARK  234  A    between atoms: _569  and  _572
REMARK  235  A    between atoms: _572  and  _573
REMARK                            x       y       z     vdW  Elec       q    Type
REMARK                         _______ _______ _______ _____ _____    ______ ____
ROOT
ATOM      1  C   ILE A   3      15.019  30.247  16.440  0.00  0.00    +0.241 C 
ATOM      2  O   ILE A   3      13.854  30.657  16.398  0.00  0.00    -0.273 OA
ATOM      3  N   GLY A   4      15.505  29.340  15.597  0.00  0.00    -0.295 N 
ATOM      4  H   GLY A   4      16.493  29.028  15.689  0.00  0.00    +0.150 HD
ENDROOT
BRANCH   3   5
ATOM      5  CA  GLY A   4      14.668  28.780  14.547  0.00  0.00    +0.176 C 
BRANCH   5   6
ATOM      6  C   GLY A   4      14.343  27.333  14.841  0.00  0.00    +0.243 C 
ATOM      7  O   GLY A   4      15.184  26.582  15.327  0.00  0.00    -0.273 OA
ATOM      8  N   GLY A   5      13.110  26.950  14.557  0.00  0.00    -0.295 N 
ATOM      9  H   GLY A   5      12.406  27.661  14.275  0.00  0.00    +0.150 HD
BRANCH   8  10
ATOM     10  CA  GLY A   5      12.721  25.549  14.633  0.00  0.00    +0.176 C 
BRANCH  10  11
ATOM     11  C   GLY A   5      12.074  25.121  13.325  0.00  0.00    +0.243 C 
ATOM     12  N   ILE A   6      11.292  24.051  13.390  0.00  0.00    -0.297 N 
ATOM     13  H   ILE A   6      11.143  23.595  14.313  0.00  0.00    +0.150 HD
ATOM     14  O   GLY A   5      12.238  25.783  12.290  0.00  0.00    -0.273 OA
BRANCH  12  15
ATOM     15  CA  ILE A   6      10.630  23.487  12.210  0.00  0.00    +0.149 C 
BRANCH  15  16
ATOM     16  C   ILE A   6       9.715  24.478  11.461  0.00  0.00    +0.241 C 
ATOM     17  N   GLY A   7       9.077  25.357  12.223  0.00  0.00    -0.295 N 
ATOM     18  H   GLY A   7       9.343  25.435  13.225  0.00  0.00    +0.150 HD
ATOM     19  O   ILE A   6       9.608  24.437  10.215  0.00  0.00    -0.273 OA
BRANCH  17  20
ATOM     20  CA  GLY A   7       8.011  26.223  11.706  0.00  0.00    +0.176 C 
BRANCH  20  21
ATOM     21  C   GLY A   7       8.428  27.664  11.514  0.00  0.00    +0.243 C 
ATOM     22  N   GLY A   8       9.693  27.974  11.795  0.00  0.00    -0.296 N 
ATOM     23  H   GLY A   8      10.338  27.223  12.113  0.00  0.00    +0.150 HD
ATOM     24  O   GLY A   7       7.618  28.479  11.101  0.00  0.00    -0.273 OA
BRANCH  22  25
ATOM     25  CA  GLY A   8      10.201  29.341  11.669  0.00  0.00    +0.163 C 
BRANCH  25  26
ATOM     26  C   GLY A   8      10.896  29.788  12.945  0.00  0.00    +0.229 C 
ATOM     27  O   GLY A   8      11.296  28.963  13.768  0.00  0.00    -0.286 OA
ENDBRANCH  25  26
ENDBRANCH  22  25
ENDBRANCH  20  21
ENDBRANCH  17  20
ENDBRANCH  15  16
BRANCH  15  28
ATOM     28  CB  ILE A   6       9.830  22.204  12.605  0.00  0.00    +0.027 C 
ATOM     29  CG2 ILE A   6       8.477  22.544  13.249  0.00  0.00    +0.002 C 
BRANCH  28  30
ATOM     30  CG1 ILE A   6       9.696  21.234  11.427  0.00  0.00    +0.002 C 
ATOM     31  CD1 ILE A   6      10.961  21.106  10.644  0.00  0.00    +0.000 C 
ENDBRANCH  28  30
ENDBRANCH  15  28
ENDBRANCH  12  15
ENDBRANCH  10  11
ENDBRANCH   8  10
ENDBRANCH   5   6
ENDBRANCH   3   5
BRANCH   1  32
ATOM     32  CA  ILE A   3      15.990  30.764  17.493  0.00  0.00    +0.149 C 
BRANCH  32  34
ATOM     33  C   MET A   2      16.603  33.088  17.779  0.00  0.00    +0.241 C 
ATOM     34  N   ILE A   3      15.658  32.165  17.785  0.00  0.00    -0.297 N 
ATOM     35  H   ILE A   3      14.675  32.431  17.997  0.00  0.00    +0.150 HD
ATOM     36  O   MET A   2      17.805  32.821  17.660  0.00  0.00    -0.273 OA
BRANCH  33  37
ATOM     37  CA  MET A   2      16.152  34.506  17.979  0.00  0.00    +0.149 C 
BRANCH  37  40
ATOM     38  C   LYS A   1      16.732  35.384  20.205  0.00  0.00    +0.238 C 
ATOM     39  O   LYS A   1      15.584  35.327  20.637  0.00  0.00    -0.274 OA
ATOM     40  N   MET A   2      17.074  35.134  18.933  0.00  0.00    -0.297 N 
ATOM     41  H   MET A   2      18.028  35.395  18.610  0.00  0.00    +0.150 HD
BRANCH  38  42
ATOM     42  CA  LYS A   1      17.850  35.827  21.123  0.00  0.00    +0.145 C 
BRANCH  42  43
ATOM     43  N   LYS A   1      17.330  36.814  22.040  0.00  0.00    -0.238 NA
ATOM     44  H   LYS A   1      16.343  36.749  22.362  0.00  0.00    +0.142 HD
ENDBRANCH  42  43
BRANCH  42  45
ATOM     45  CB  LYS A   1      18.445  34.638  21.869  0.00  0.00    +0.026 C 
BRANCH  45  46
ATOM     46  CG  LYS A   1      18.984  33.583  20.923  0.00  0.00    -0.000 C 
BRANCH  46  47
ATOM     47  CD  LYS A   1      20.015  32.717  21.540  0.00  0.00    -0.024 C 
BRANCH  47  48
ATOM     48  CE  LYS A   1      20.452  31.672  20.531  0.00  0.00    -0.086 C 
BRANCH  48  49
ATOM     49  NZ  LYS A   1      21.911  31.764  20.403  0.00  0.00    +0.380 N 
ATOM     50  HZ1 LYS A   1      22.351  31.583  21.328  0.00  0.00    -0.089 HD
ATOM     51  HZ2 LYS A   1      22.170  32.717  20.075  0.00  0.00    -0.089 HD
ATOM     52  HZ3 LYS A   1      22.243  31.058  19.716  0.00  0.00    -0.089 HD
ENDBRANCH  48  49
ENDBRANCH  47  48
ENDBRANCH  46  47
ENDBRANCH  45  46
ENDBRANCH  42  45
ENDBRANCH  38  42
ENDBRANCH  37  40
BRANCH  37  53
ATOM     53  CB  MET A   2      16.164  35.220  16.630  0.00  0.00    +0.041 C 
BRANCH  53  54
ATOM     54  CG  MET A   2      15.522  36.584  16.661  0.00  0.00    +0.060 C 
BRANCH  54  55
ATOM     55  SD  MET A   2      13.828  36.422  16.097  0.00  0.00    -0.139 S 
ATOM     56  CE  MET A   2      14.113  36.045  14.366  0.00  0.00    +0.069 C 
ENDBRANCH  54  55
ENDBRANCH  53  54
ENDBRANCH  37  53
ENDBRANCH  33  37
ENDBRANCH  32  34
BRANCH  32  57
ATOM     57  CB  ILE A   3      15.968  29.852  18.766  0.00  0.00    +0.027 C 
ATOM     58  CG2 ILE A   3      17.074  30.290  19.760  0.00  0.00    +0.002 C 
BRANCH  57  59
ATOM     59  CG1 ILE A   3      14.575  29.849  19.426  0.00  0.00    +0.002 C 
ATOM     60  CD1 ILE A   3      14.384  28.794  20.536  0.00  0.00    +0.000 C 
ENDBRANCH  57  59
ENDBRANCH  32  57
ENDBRANCH   1  32
TORSDOF 28
REMARK  Name = ../refined-set-2016/3nu9/3nu9_pocket.pdb
REMARK  235 active torsions:
REMARK  status: ('A' for Active; 'I' for Inactive)
REMARK    1  A    between atoms: _1  and  _3
REMARK    2  A    between atoms: _3  and  _4
REMARK    3  A    between atoms: _3  and  _6
REMARK    4  A    between atoms: _6  and  _7
REMARK    5  A    between atoms: _7  and  _8
REMARK    6  A    between atoms: _8  and  _9
REMARK    7  A    between atoms: _18  and  _20
REMARK    8  A    between atoms: _20  and  _21
REMARK    9  A    between atoms: _20  and  _23
REMARK   10  A    between atoms: _23  and  _24
REMARK   11  A    between atoms: _27  and  _29
REMARK   12  A    between atoms: _29  and  _30
REMARK   13  A    between atoms: _29  and  _32
REMARK   14  A    between atoms: _32  and  _33
REMARK   15  A    between atoms: _36  and  _38
REMARK   16  A    between atoms: _38  and  _39
REMARK   17  A    between atoms: _38  and  _41
REMARK   18  A    between atoms: _41  and  _42
REMARK   19  A    between atoms: _45  and  _47
REMARK   20  A    between atoms: _47  and  _48
REMARK   21  A    between atoms: _47  and  _50
REMARK   22  A    between atoms: _50  and  _51
REMARK   23  A    between atoms: _54  and  _56
REMARK   24  A    between atoms: _56  and  _57
REMARK   25  A    between atoms: _59  and  _61
REMARK   26  A    between atoms: _61  and  _62
REMARK   27  A    between atoms: _65  and  _67
REMARK   28  A    between atoms: _67  and  _68
REMARK   29  A    between atoms: _67  and  _70
REMARK   30  A    between atoms: _70  and  _71
REMARK   31  A    between atoms: _74  and  _76
REMARK   32  A    between atoms: _76  and  _77
REMARK   33  A    between atoms: _76  and  _79
REMARK   34  A    between atoms: _79  and  _80
REMARK   35  A    between atoms: _83  and  _85
REMARK   36  A    between atoms: _85  and  _86
REMARK   37  A    between atoms: _85  and  _88
REMARK   38  A    between atoms: _88  and  _89
REMARK   39  A    between atoms: _92  and  _94
REMARK   40  A    between atoms: _94  and  _95
REMARK   41  A    between atoms: _94  and  _97
REMARK   42  A    between atoms: _100  and  _102
REMARK   43  A    between atoms: _102  and  _103
REMARK   44  A    between atoms: _102  and  _105
REMARK   45  A    between atoms: _105  and  _106
REMARK   46  A    between atoms: _109  and  _111
REMARK   47  A    between atoms: _111  and  _112
REMARK   48  A    between atoms: _111  and  _114
REMARK   49  A    between atoms: _114  and  _115
REMARK   50  A    between atoms: _115  and  _116
REMARK   51  A    between atoms: _116  and  _117
REMARK   52  A    between atoms: _117  and  _118
REMARK   53  A    between atoms: _122  and  _124
REMARK   54  A    between atoms: _124  and  _125
REMARK   55  A    between atoms: _124  and  _127
REMARK   56  A    between atoms: _127  and  _128
REMARK   57  A    between atoms: _128  and  _129
REMARK   58  A    between atoms: _131  and  _133
REMARK   59  A    between atoms: _133  and  _134
REMARK   60  A    between atoms: _133  and  _136
REMARK   61  A    between atoms: _136  and  _137
REMARK   62  A    between atoms: _140  and  _142
REMARK   63  A    between atoms: _142  and  _143
REMARK   64  A    between atoms: _145  and  _147
REMARK   65  A    between atoms: _147  and  _148
REMARK   66  A    between atoms: _150  and  _152
REMARK   67  A    between atoms: _152  and  _153
REMARK   68  A    between atoms: _152  and  _155
REMARK   69  A    between atoms: _155  and  _156
REMARK   70  A    between atoms: _159  and  _161
REMARK   71  A    between atoms: _161  and  _162
REMARK   72  A    between atoms: _164  and  _166
REMARK   73  A    between atoms: _166  and  _167
REMARK   74  A    between atoms: _169  and  _171
REMARK   75  A    between atoms: _171  and  _172
REMARK   76  A    between atoms: _171  and  _174
REMARK   77  A    between atoms: _174  and  _175
REMARK   78  A    between atoms: _181  and  _183
REMARK   79  A    between atoms: _183  and  _184
REMARK   80  A    between atoms: _183  and  _186
REMARK   81  A    between atoms: _186  and  _187
REMARK   82  A    between atoms: _190  and  _192
REMARK   83  A    between atoms: _192  and  _193
REMARK   84  A    between atoms: _192  and  _195
REMARK   85  A    between atoms: _198  and  _200
REMARK   86  A    between atoms: _200  and  _201
REMARK   87  A    between atoms: _200  and  _203
REMARK   88  A    between atoms: _203  and  _204
REMARK   89  A    between atoms: _208  and  _209
REMARK   90  A    between atoms: _214  and  _216
REMARK   91  A    between atoms: _216  and  _217
REMARK   92  A    between atoms: _216  and  _219
REMARK   93  A    between atoms: _219  and  _220
REMARK   94  A    between atoms: _224  and  _225
REMARK   95  A    between atoms: _230  and  _232
REMARK   96  A    between atoms: _232  and  _233
REMARK   97  A    between atoms: _232  and  _235
REMARK   98  A    between atoms: _238  and  _240
REMARK   99  A    between atoms: _240  and  _241
REMARK  100  A    between atoms: _240  and  _243
REMARK  101  A    between atoms: _243  and  _244
REMARK  102  A    between atoms: _249  and  _251
REMARK  103  A    between atoms: _251  and  _252
REMARK  104  A    between atoms: _251  and  _254
REMARK  105  A    between atoms: _257  and  _259
REMARK  106  A    between atoms: _259  and  _260
REMARK  107  A    between atoms: _259  and  _262
REMARK  108  A    between atoms: _262  and  _263
REMARK  109  A    between atoms: _266  and  _268
REMARK  110  A    between atoms: _268  and  _269
REMARK  111  A    between atoms: _271  and  _273
REMARK  112  A    between atoms: _273  and  _274
REMARK  113  A    between atoms: _273  and  _276
REMARK  114  A    between atoms: _276  and  _277
REMARK  115  A    between atoms: _277  and  _278
REMARK  116  A    between atoms: _278  and  _279
REMARK  117  A    between atoms: _288  and  _290
REMARK  118  A    between atoms: _290  and  _291
REMARK  119  A    between atoms: _290  and  _293
REMARK  120  A    between atoms: _293  and  _294
REMARK  121  A    between atoms: _299  and  _301
REMARK  122  A    between atoms: _301  and  _302
REMARK  123  A    between atoms: _301  and  _304
REMARK  124  A    between atoms: _304  and  _305
REMARK  125  A    between atoms: _305  and  _306
REMARK  126  A    between atoms: _306  and  _307
REMARK  127  A    between atoms: _316  and  _318
REMARK  128  A    between atoms: _318  and  _319
REMARK  129  A    between atoms: _318  and  _321
REMARK  130  A    between atoms: _321  and  _322
REMARK  131  A    between atoms: _325  and  _327
REMARK  132  A    between atoms: _327  and  _328
REMARK  133  A    between atoms: _327  and  _330
REMARK  134  A    between atoms: _330  and  _331
REMARK  135  A    between atoms: _334  and  _336
REMARK  136  A    between atoms: _336  and  _337
REMARK  137  A    between atoms: _336  and  _339
REMARK  138  A    between atoms: _339  and  _340
REMARK  139  A    between atoms: _343  and  _345
REMARK  140  A    between atoms: _345  and  _346
REMARK  141  A    between atoms: _345  and  _348
REMARK  142  A    between atoms: _348  and  _349
REMARK  143  A    between atoms: _352  and  _354
REMARK  144  A    between atoms: _354  and  _355
REMARK  145  A    between atoms: _357  and  _359
REMARK  146  A    between atoms: _359  and  _360
REMARK  147  A    between atoms: _363  and  _365
REMARK  148  A    between atoms: _365  and  _366
REMARK  149  A    between atoms: _365  and  _368
REMARK  150  A    between atoms: _368  and  _369
REMARK  151  A    between atoms: _372  and  _374
REMARK  152  A    between atoms: _374  and  _375
REMARK  153  A    between atoms: _374  and  _377
REMARK  154  A    between atoms: _377  and  _378
REMARK  155  A    between atoms: _381  and  _383
REMARK  156  A    between atoms: _383  and  _384
REMARK  157  A    between atoms: _383  and  _386
REMARK  158  A    between atoms: _386  and  _387
REMARK  159  A    between atoms: _390  and  _392
REMARK  160  A    between atoms: _392  and  _393
REMARK  161  A    between atoms: _392  and  _395
REMARK  162  A    between atoms: _398  and  _400
REMARK  163  A    between atoms: _400  and  _401
REMARK  164  A    between atoms: _400  and  _403
REMARK  165  A    between atoms: _403  and  _404
REMARK  166  A    between atoms: _407  and  _409
REMARK  167  A    between atoms: _409  and  _410
REMARK  168  A    between atoms: _409  and  _412
REMARK  169  A    between atoms: _412  and  _413
REMARK  170  A    between atoms: _413  and  _414
REMARK  171  A    between atoms: _414  and  _415
REMARK  172  A    between atoms: _415  and  _416
REMARK  173  A    between atoms: _420  and  _422
REMARK  174  A    between atoms: _422  and  _423
REMARK  175  A    between atoms: _422  and  _425
REMARK  176  A    between atoms: _425  and  _426
REMARK  177  A    between atoms: _426  and  _427
REMARK  178  A    between atoms: _429  and  _431
REMARK  179  A    between atoms: _431  and  _432
REMARK  180  A    between atoms: _431  and  _434
REMARK  181  A    between atoms: _434  and  _435
REMARK  182  A    between atoms: _438  and  _440
REMARK  183  A    between atoms: _440  and  _441
REMARK  184  A    between atoms: _443  and  _445
REMARK  185  A    between atoms: _445  and  _446
REMARK  186  A    between atoms: _448  and  _450
REMARK  187  A    between atoms: _450  and  _451
REMARK  188  A    between atoms: _450  and  _453
REMARK  189  A    between atoms: _453  and  _454
REMARK  190  A    between atoms: _457  and  _459
REMARK  191  A    between atoms: _459  and  _460
REMARK  192  A    between atoms: _462  and  _464
REMARK  193  A    between atoms: _464  and  _465
REMARK  194  A    between atoms: _467  and  _469
REMARK  195  A    between atoms: _469  and  _470
REMARK  196  A    between atoms: _469  and  _472
REMARK  197  A    between atoms: _472  and  _473
REMARK  198  A    between atoms: _476  and  _478
REMARK  199  A    between atoms: _478  and  _479
REMARK  200  A    between atoms: _478  and  _481
REMARK  201  A    between atoms: _484  and  _486
REMARK  202  A    between atoms: _486  and  _487
REMARK  203  A    between atoms: _486  and  _489
REMARK  204  A    between atoms: _489  and  _490
REMARK  205  A    between atoms: _493  and  _495
REMARK  206  A    between atoms: _495  and  _496
REMARK  207  A    between atoms: _495  and  _498
REMARK  208  A    between atoms: _498  and  _499
REMARK  209  A    between atoms: _503  and  _504
REMARK  210  A    between atoms: _509  and  _511
REMARK  211  A    between atoms: _511  and  _512
REMARK  212  A    between atoms: _511  and  _514
REMARK  213  A    between atoms: _517  and  _519
REMARK  214  A    between atoms: _519  and  _520
REMARK  215  A    between atoms: _519  and  _522
REMARK  216  A    between atoms: _522  and  _523
REMARK  217  A    between atoms: _528  and  _530
REMARK  218  A    between atoms: _530  and  _531
REMARK  219  A    between atoms: _530  and  _533
REMARK  220  A    between atoms: _536  and  _538
REMARK  221  A    between atoms: _538  and  _539
REMARK  222  A    between atoms: _538  and  _541
REMARK  223  A    between atoms: _541  and  _542
REMARK  224  A    between atoms: _545  and  _547
REMARK  225  A    between atoms: _547  and  _548
REMARK  226  A    between atoms: _550  and  _552
REMARK  227  A    between atoms: _552  and  _553
REMARK  228  A    between atoms: _552  and  _555
REMARK  229  A    between atoms: _555  and  _556
REMARK  230  A    between atoms: _556  and  _557
REMARK  231  A    between atoms: _557  and  _558
REMARK  232  A    between atoms: _567  and  _569
REMARK  233  A    between atoms: _569  and  _570
REMARK  234  A    between atoms: _569  and  _572
REMARK  235  A    between atoms: _572  and  _573
REMARK                            x       y       z     vdW  Elec       q    Type
REMARK                         _______ _______ _______ _____ _____    ______ ____
ROOT
ATOM      1  CA  ILE A   1      10.661  32.826  17.649  0.00  0.00    +0.133 C 
ENDROOT
BRANCH   1   2
ATOM      2  N   ILE A   1      11.299  32.137  16.521  0.00  0.00    -0.239 NA
ATOM      3  H   ILE A   1      12.115  31.522  16.714  0.00  0.00    +0.142 HD
ENDBRANCH   1   2
BRANCH   1   4
ATOM      4  CB  ILE A   1       9.949  31.854  18.636  0.00  0.00    +0.023 C 
ATOM      5  CG2 ILE A   1       8.863  31.042  17.911  0.00  0.00    +0.002 C 
BRANCH   4   6
ATOM      6  CG1 ILE A   1      10.959  30.952  19.369  0.00  0.00    +0.002 C 
ATOM      7  CD1 ILE A   1      10.392  30.122  20.507  0.00  0.00    +0.000 C 
ENDBRANCH   4   6
ENDBRANCH   1   4
BRANCH   1   8
ATOM      8  C   ILE A   1      11.717  33.655  18.406  0.00  0.00    +0.224 C 
ATOM      9  O   ILE A   1      12.908  33.333  18.344  0.00  0.00    -0.287 OA
ENDBRANCH   1   8
TORSDOF 4
REMARK  Name = ../refined-set-2016/3nu9/3nu9_pocket.pdb
REMARK  235 active torsions:
REMARK  status: ('A' for Active; 'I' for Inactive)
REMARK    1  A    between atoms: _1  and  _3
REMARK    2  A    between atoms: _3  and  _4
REMARK    3  A    between atoms: _3  and  _6
REMARK    4  A    between atoms: _6  and  _7
REMARK    5  A    between atoms: _7  and  _8
REMARK    6  A    between atoms: _8  and  _9
REMARK    7  A    between atoms: _18  and  _20
REMARK    8  A    between atoms: _20  and  _21
REMARK    9  A    between atoms: _20  and  _23
REMARK   10  A    between atoms: _23  and  _24
REMARK   11  A    between atoms: _27  and  _29
REMARK   12  A    between atoms: _29  and  _30
REMARK   13  A    between atoms: _29  and  _32
REMARK   14  A    between atoms: _32  and  _33
REMARK   15  A    between atoms: _36  and  _38
REMARK   16  A    between atoms: _38  and  _39
REMARK   17  A    between atoms: _38  and  _41
REMARK   18  A    between atoms: _41  and  _42
REMARK   19  A    between atoms: _45  and  _47
REMARK   20  A    between atoms: _47  and  _48
REMARK   21  A    between atoms: _47  and  _50
REMARK   22  A    between atoms: _50  and  _51
REMARK   23  A    between atoms: _54  and  _56
REMARK   24  A    between atoms: _56  and  _57
REMARK   25  A    between atoms: _59  and  _61
REMARK   26  A    between atoms: _61  and  _62
REMARK   27  A    between atoms: _65  and  _67
REMARK   28  A    between atoms: _67  and  _68
REMARK   29  A    between atoms: _67  and  _70
REMARK   30  A    between atoms: _70  and  _71
REMARK   31  A    between atoms: _74  and  _76
REMARK   32  A    between atoms: _76  and  _77
REMARK   33  A    between atoms: _76  and  _79
REMARK   34  A    between atoms: _79  and  _80
REMARK   35  A    between atoms: _83  and  _85
REMARK   36  A    between atoms: _85  and  _86
REMARK   37  A    between atoms: _85  and  _88
REMARK   38  A    between atoms: _88  and  _89
REMARK   39  A    between atoms: _92  and  _94
REMARK   40  A    between atoms: _94  and  _95
REMARK   41  A    between atoms: _94  and  _97
REMARK   42  A    between atoms: _100  and  _102
REMARK   43  A    between atoms: _102  and  _103
REMARK   44  A    between atoms: _102  and  _105
REMARK   45  A    between atoms: _105  and  _106
REMARK   46  A    between atoms: _109  and  _111
REMARK   47  A    between atoms: _111  and  _112
REMARK   48  A    between atoms: _111  and  _114
REMARK   49  A    between atoms: _114  and  _115
REMARK   50  A    between atoms: _115  and  _116
REMARK   51  A    between atoms: _116  and  _117
REMARK   52  A    between atoms: _117  and  _118
REMARK   53  A    between atoms: _122  and  _124
REMARK   54  A    between atoms: _124  and  _125
REMARK   55  A    between atoms: _124  and  _127
REMARK   56  A    between atoms: _127  and  _128
REMARK   57  A    between atoms: _128  and  _129
REMARK   58  A    between atoms: _131  and  _133
REMARK   59  A    between atoms: _133  and  _134
REMARK   60  A    between atoms: _133  and  _136
REMARK   61  A    between atoms: _136  and  _137
REMARK   62  A    between atoms: _140  and  _142
REMARK   63  A    between atoms: _142  and  _143
REMARK   64  A    between atoms: _145  and  _147
REMARK   65  A    between atoms: _147  and  _148
REMARK   66  A    between atoms: _150  and  _152
REMARK   67  A    between atoms: _152  and  _153
REMARK   68  A    between atoms: _152  and  _155
REMARK   69  A    between atoms: _155  and  _156
REMARK   70  A    between atoms: _159  and  _161
REMARK   71  A    between atoms: _161  and  _162
REMARK   72  A    between atoms: _164  and  _166
REMARK   73  A    between atoms: _166  and  _167
REMARK   74  A    between atoms: _169  and  _171
REMARK   75  A    between atoms: _171  and  _172
REMARK   76  A    between atoms: _171  and  _174
REMARK   77  A    between atoms: _174  and  _175
REMARK   78  A    between atoms: _181  and  _183
REMARK   79  A    between atoms: _183  and  _184
REMARK   80  A    between atoms: _183  and  _186
REMARK   81  A    between atoms: _186  and  _187
REMARK   82  A    between atoms: _190  and  _192
REMARK   83  A    between atoms: _192  and  _193
REMARK   84  A    between atoms: _192  and  _195
REMARK   85  A    between atoms: _198  and  _200
REMARK   86  A    between atoms: _200  and  _201
REMARK   87  A    between atoms: _200  and  _203
REMARK   88  A    between atoms: _203  and  _204
REMARK   89  A    between atoms: _208  and  _209
REMARK   90  A    between atoms: _214  and  _216
REMARK   91  A    between atoms: _216  and  _217
REMARK   92  A    between atoms: _216  and  _219
REMARK   93  A    between atoms: _219  and  _220
REMARK   94  A    between atoms: _224  and  _225
REMARK   95  A    between atoms: _230  and  _232
REMARK   96  A    between atoms: _232  and  _233
REMARK   97  A    between atoms: _232  and  _235
REMARK   98  A    between atoms: _238  and  _240
REMARK   99  A    between atoms: _240  and  _241
REMARK  100  A    between atoms: _240  and  _243
REMARK  101  A    between atoms: _243  and  _244
REMARK  102  A    between atoms: _249  and  _251
REMARK  103  A    between atoms: _251  and  _252
REMARK  104  A    between atoms: _251  and  _254
REMARK  105  A    between atoms: _257  and  _259
REMARK  106  A    between atoms: _259  and  _260
REMARK  107  A    between atoms: _259  and  _262
REMARK  108  A    between atoms: _262  and  _263
REMARK  109  A    between atoms: _266  and  _268
REMARK  110  A    between atoms: _268  and  _269
REMARK  111  A    between atoms: _271  and  _273
REMARK  112  A    between atoms: _273  and  _274
REMARK  113  A    between atoms: _273  and  _276
REMARK  114  A    between atoms: _276  and  _277
REMARK  115  A    between atoms: _277  and  _278
REMARK  116  A    between atoms: _278  and  _279
REMARK  117  A    between atoms: _288  and  _290
REMARK  118  A    between atoms: _290  and  _291
REMARK  119  A    between atoms: _290  and  _293
REMARK  120  A    between atoms: _293  and  _294
REMARK  121  A    between atoms: _299  and  _301
REMARK  122  A    between atoms: _301  and  _302
REMARK  123  A    between atoms: _301  and  _304
REMARK  124  A    between atoms: _304  and  _305
REMARK  125  A    between atoms: _305  and  _306
REMARK  126  A    between atoms: _306  and  _307
REMARK  127  A    between atoms: _316  and  _318
REMARK  128  A    between atoms: _318  and  _319
REMARK  129  A    between atoms: _318  and  _321
REMARK  130  A    between atoms: _321  and  _322
REMARK  131  A    between atoms: _325  and  _327
REMARK  132  A    between atoms: _327  and  _328
REMARK  133  A    between atoms: _327  and  _330
REMARK  134  A    between atoms: _330  and  _331
REMARK  135  A    between atoms: _334  and  _336
REMARK  136  A    between atoms: _336  and  _337
REMARK  137  A    between atoms: _336  and  _339
REMARK  138  A    between atoms: _339  and  _340
REMARK  139  A    between atoms: _343  and  _345
REMARK  140  A    between atoms: _345  and  _346
REMARK  141  A    between atoms: _345  and  _348
REMARK  142  A    between atoms: _348  and  _349
REMARK  143  A    between atoms: _352  and  _354
REMARK  144  A    between atoms: _354  and  _355
REMARK  145  A    between atoms: _357  and  _359
REMARK  146  A    between atoms: _359  and  _360
REMARK  147  A    between atoms: _363  and  _365
REMARK  148  A    between atoms: _365  and  _366
REMARK  149  A    between atoms: _365  and  _368
REMARK  150  A    between atoms: _368  and  _369
REMARK  151  A    between atoms: _372  and  _374
REMARK  152  A    between atoms: _374  and  _375
REMARK  153  A    between atoms: _374  and  _377
REMARK  154  A    between atoms: _377  and  _378
REMARK  155  A    between atoms: _381  and  _383
REMARK  156  A    between atoms: _383  and  _384
REMARK  157  A    between atoms: _383  and  _386
REMARK  158  A    between atoms: _386  and  _387
REMARK  159  A    between atoms: _390  and  _392
REMARK  160  A    between atoms: _392  and  _393
REMARK  161  A    between atoms: _392  and  _395
REMARK  162  A    between atoms: _398  and  _400
REMARK  163  A    between atoms: _400  and  _401
REMARK  164  A    between atoms: _400  and  _403
REMARK  165  A    between atoms: _403  and  _404
REMARK  166  A    between atoms: _407  and  _409
REMARK  167  A    between atoms: _409  and  _410
REMARK  168  A    between atoms: _409  and  _412
REMARK  169  A    between atoms: _412  and  _413
REMARK  170  A    between atoms: _413  and  _414
REMARK  171  A    between atoms: _414  and  _415
REMARK  172  A    between atoms: _415  and  _416
REMARK  173  A    between atoms: _420  and  _422
REMARK  174  A    between atoms: _422  and  _423
REMARK  175  A    between atoms: _422  and  _425
REMARK  176  A    between atoms: _425  and  _426
REMARK  177  A    between atoms: _426  and  _427
REMARK  178  A    between atoms: _429  and  _431
REMARK  179  A    between atoms: _431  and  _432
REMARK  180  A    between atoms: _431  and  _434
REMARK  181  A    between atoms: _434  and  _435
REMARK  182  A    between atoms: _438  and  _440
REMARK  183  A    between atoms: _440  and  _441
REMARK  184  A    between atoms: _443  and  _445
REMARK  185  A    between atoms: _445  and  _446
REMARK  186  A    between atoms: _448  and  _450
REMARK  187  A    between atoms: _450  and  _451
REMARK  188  A    between atoms: _450  and  _453
REMARK  189  A    between atoms: _453  and  _454
REMARK  190  A    between atoms: _457  and  _459
REMARK  191  A    between atoms: _459  and  _460
REMARK  192  A    between atoms: _462  and  _464
REMARK  193  A    between atoms: _464  and  _465
REMARK  194  A    between atoms: _467  and  _469
REMARK  195  A    between atoms: _469  and  _470
REMARK  196  A    between atoms: _469  and  _472
REMARK  197  A    between atoms: _472  and  _473
REMARK  198  A    between atoms: _476  and  _478
REMARK  199  A    between atoms: _478  and  _479
REMARK  200  A    between atoms: _478  and  _481
REMARK  201  A    between atoms: _484  and  _486
REMARK  202  A    between atoms: _486  and  _487
REMARK  203  A    between atoms: _486  and  _489
REMARK  204  A    between atoms: _489  and  _490
REMARK  205  A    between atoms: _493  and  _495
REMARK  206  A    between atoms: _495  and  _496
REMARK  207  A    between atoms: _495  and  _498
REMARK  208  A    between atoms: _498  and  _499
REMARK  209  A    between atoms: _503  and  _504
REMARK  210  A    between atoms: _509  and  _511
REMARK  211  A    between atoms: _511  and  _512
REMARK  212  A    between atoms: _511  and  _514
REMARK  213  A    between atoms: _517  and  _519
REMARK  214  A    between atoms: _519  and  _520
REMARK  215  A    between atoms: _519  and  _522
REMARK  216  A    between atoms: _522  and  _523
REMARK  217  A    between atoms: _528  and  _530
REMARK  218  A    between atoms: _530  and  _531
REMARK  219  A    between atoms: _530  and  _533
REMARK  220  A    between atoms: _536  and  _538
REMARK  221  A    between atoms: _538  and  _539
REMARK  222  A    between atoms: _538  and  _541
REMARK  223  A    between atoms: _541  and  _542
REMARK  224  A    between atoms: _545  and  _547
REMARK  225  A    between atoms: _547  and  _548
REMARK  226  A    between atoms: _550  and  _552
REMARK  227  A    between atoms: _552  and  _553
REMARK  228  A    between atoms: _552  and  _555
REMARK  229  A    between atoms: _555  and  _556
REMARK  230  A    between atoms: _556  and  _557
REMARK  231  A    between atoms: _557  and  _558
REMARK  232  A    between atoms: _567  and  _569
REMARK  233  A    between atoms: _569  and  _570
REMARK  234  A    between atoms: _569  and  _572
REMARK  235  A    between atoms: _572  and  _573
REMARK                            x       y       z     vdW  Elec       q    Type
REMARK                         _______ _______ _______ _____ _____    ______ ____
ROOT
ATOM      1  CA  VAL A   1      13.219  34.172  23.427  0.00  0.00    +0.133 C 
ENDROOT
BRANCH   1   2
ATOM      2  CB  VAL A   1      13.788  32.726  23.469  0.00  0.00    +0.023 C 
ATOM      3  CG2 VAL A   1      15.171  32.684  22.854  0.00  0.00    +0.002 C 
ATOM      4  CG1 VAL A   1      12.835  31.755  22.743  0.00  0.00    +0.002 C 
ENDBRANCH   1   2
BRANCH   1   5
ATOM      5  N   VAL A   1      13.198  34.729  22.063  0.00  0.00    -0.239 NA
ATOM      6  H   VAL A   1      14.090  35.009  21.608  0.00  0.00    +0.142 HD
ENDBRANCH   1   5
BRANCH   1   7
ATOM      7  C   VAL A   1      14.046  35.082  24.371  0.00  0.00    +0.224 C 
ATOM      8  O   VAL A   1      14.809  35.923  23.893  0.00  0.00    -0.287 OA
ENDBRANCH   1   7
TORSDOF 3
REMARK  Name = ../refined-set-2016/3nu9/3nu9_pocket.pdb
REMARK  235 active torsions:
REMARK  status: ('A' for Active; 'I' for Inactive)
REMARK    1  A    between atoms: _1  and  _3
REMARK    2  A    between atoms: _3  and  _4
REMARK    3  A    between atoms: _3  and  _6
REMARK    4  A    between atoms: _6  and  _7
REMARK    5  A    between atoms: _7  and  _8
REMARK    6  A    between atoms: _8  and  _9
REMARK    7  A    between atoms: _18  and  _20
REMARK    8  A    between atoms: _20  and  _21
REMARK    9  A    between atoms: _20  and  _23
REMARK   10  A    between atoms: _23  and  _24
REMARK   11  A    between atoms: _27  and  _29
REMARK   12  A    between atoms: _29  and  _30
REMARK   13  A    between atoms: _29  and  _32
REMARK   14  A    between atoms: _32  and  _33
REMARK   15  A    between atoms: _36  and  _38
REMARK   16  A    between atoms: _38  and  _39
REMARK   17  A    between atoms: _38  and  _41
REMARK   18  A    between atoms: _41  and  _42
REMARK   19  A    between atoms: _45  and  _47
REMARK   20  A    between atoms: _47  and  _48
REMARK   21  A    between atoms: _47  and  _50
REMARK   22  A    between atoms: _50  and  _51
REMARK   23  A    between atoms: _54  and  _56
REMARK   24  A    between atoms: _56  and  _57
REMARK   25  A    between atoms: _59  and  _61
REMARK   26  A    between atoms: _61  and  _62
REMARK   27  A    between atoms: _65  and  _67
REMARK   28  A    between atoms: _67  and  _68
REMARK   29  A    between atoms: _67  and  _70
REMARK   30  A    between atoms: _70  and  _71
REMARK   31  A    between atoms: _74  and  _76
REMARK   32  A    between atoms: _76  and  _77
REMARK   33  A    between atoms: _76  and  _79
REMARK   34  A    between atoms: _79  and  _80
REMARK   35  A    between atoms: _83  and  _85
REMARK   36  A    between atoms: _85  and  _86
REMARK   37  A    between atoms: _85  and  _88
REMARK   38  A    between atoms: _88  and  _89
REMARK   39  A    between atoms: _92  and  _94
REMARK   40  A    between atoms: _94  and  _95
REMARK   41  A    between atoms: _94  and  _97
REMARK   42  A    between atoms: _100  and  _102
REMARK   43  A    between atoms: _102  and  _103
REMARK   44  A    between atoms: _102  and  _105
REMARK   45  A    between atoms: _105  and  _106
REMARK   46  A    between atoms: _109  and  _111
REMARK   47  A    between atoms: _111  and  _112
REMARK   48  A    between atoms: _111  and  _114
REMARK   49  A    between atoms: _114  and  _115
REMARK   50  A    between atoms: _115  and  _116
REMARK   51  A    between atoms: _116  and  _117
REMARK   52  A    between atoms: _117  and  _118
REMARK   53  A    between atoms: _122  and  _124
REMARK   54  A    between atoms: _124  and  _125
REMARK   55  A    between atoms: _124  and  _127
REMARK   56  A    between atoms: _127  and  _128
REMARK   57  A    between atoms: _128  and  _129
REMARK   58  A    between atoms: _131  and  _133
REMARK   59  A    between atoms: _133  and  _134
REMARK   60  A    between atoms: _133  and  _136
REMARK   61  A    between atoms: _136  and  _137
REMARK   62  A    between atoms: _140  and  _142
REMARK   63  A    between atoms: _142  and  _143
REMARK   64  A    between atoms: _145  and  _147
REMARK   65  A    between atoms: _147  and  _148
REMARK   66  A    between atoms: _150  and  _152
REMARK   67  A    between atoms: _152  and  _153
REMARK   68  A    between atoms: _152  and  _155
REMARK   69  A    between atoms: _155  and  _156
REMARK   70  A    between atoms: _159  and  _161
REMARK   71  A    between atoms: _161  and  _162
REMARK   72  A    between atoms: _164  and  _166
REMARK   73  A    between atoms: _166  and  _167
REMARK   74  A    between atoms: _169  and  _171
REMARK   75  A    between atoms: _171  and  _172
REMARK   76  A    between atoms: _171  and  _174
REMARK   77  A    between atoms: _174  and  _175
REMARK   78  A    between atoms: _181  and  _183
REMARK   79  A    between atoms: _183  and  _184
REMARK   80  A    between atoms: _183  and  _186
REMARK   81  A    between atoms: _186  and  _187
REMARK   82  A    between atoms: _190  and  _192
REMARK   83  A    between atoms: _192  and  _193
REMARK   84  A    between atoms: _192  and  _195
REMARK   85  A    between atoms: _198  and  _200
REMARK   86  A    between atoms: _200  and  _201
REMARK   87  A    between atoms: _200  and  _203
REMARK   88  A    between atoms: _203  and  _204
REMARK   89  A    between atoms: _208  and  _209
REMARK   90  A    between atoms: _214  and  _216
REMARK   91  A    between atoms: _216  and  _217
REMARK   92  A    between atoms: _216  and  _219
REMARK   93  A    between atoms: _219  and  _220
REMARK   94  A    between atoms: _224  and  _225
REMARK   95  A    between atoms: _230  and  _232
REMARK   96  A    between atoms: _232  and  _233
REMARK   97  A    between atoms: _232  and  _235
REMARK   98  A    between atoms: _238  and  _240
REMARK   99  A    between atoms: _240  and  _241
REMARK  100  A    between atoms: _240  and  _243
REMARK  101  A    between atoms: _243  and  _244
REMARK  102  A    between atoms: _249  and  _251
REMARK  103  A    between atoms: _251  and  _252
REMARK  104  A    between atoms: _251  and  _254
REMARK  105  A    between atoms: _257  and  _259
REMARK  106  A    between atoms: _259  and  _260
REMARK  107  A    between atoms: _259  and  _262
REMARK  108  A    between atoms: _262  and  _263
REMARK  109  A    between atoms: _266  and  _268
REMARK  110  A    between atoms: _268  and  _269
REMARK  111  A    between atoms: _271  and  _273
REMARK  112  A    between atoms: _273  and  _274
REMARK  113  A    between atoms: _273  and  _276
REMARK  114  A    between atoms: _276  and  _277
REMARK  115  A    between atoms: _277  and  _278
REMARK  116  A    between atoms: _278  and  _279
REMARK  117  A    between atoms: _288  and  _290
REMARK  118  A    between atoms: _290  and  _291
REMARK  119  A    between atoms: _290  and  _293
REMARK  120  A    between atoms: _293  and  _294
REMARK  121  A    between atoms: _299  and  _301
REMARK  122  A    between atoms: _301  and  _302
REMARK  123  A    between atoms: _301  and  _304
REMARK  124  A    between atoms: _304  and  _305
REMARK  125  A    between atoms: _305  and  _306
REMARK  126  A    between atoms: _306  and  _307
REMARK  127  A    between atoms: _316  and  _318
REMARK  128  A    between atoms: _318  and  _319
REMARK  129  A    between atoms: _318  and  _321
REMARK  130  A    between atoms: _321  and  _322
REMARK  131  A    between atoms: _325  and  _327
REMARK  132  A    between atoms: _327  and  _328
REMARK  133  A    between atoms: _327  and  _330
REMARK  134  A    between atoms: _330  and  _331
REMARK  135  A    between atoms: _334  and  _336
REMARK  136  A    between atoms: _336  and  _337
REMARK  137  A    between atoms: _336  and  _339
REMARK  138  A    between atoms: _339  and  _340
REMARK  139  A    between atoms: _343  and  _345
REMARK  140  A    between atoms: _345  and  _346
REMARK  141  A    between atoms: _345  and  _348
REMARK  142  A    between atoms: _348  and  _349
REMARK  143  A    between atoms: _352  and  _354
REMARK  144  A    between atoms: _354  and  _355
REMARK  145  A    between atoms: _357  and  _359
REMARK  146  A    between atoms: _359  and  _360
REMARK  147  A    between atoms: _363  and  _365
REMARK  148  A    between atoms: _365  and  _366
REMARK  149  A    between atoms: _365  and  _368
REMARK  150  A    between atoms: _368  and  _369
REMARK  151  A    between atoms: _372  and  _374
REMARK  152  A    between atoms: _374  and  _375
REMARK  153  A    between atoms: _374  and  _377
REMARK  154  A    between atoms: _377  and  _378
REMARK  155  A    between atoms: _381  and  _383
REMARK  156  A    between atoms: _383  and  _384
REMARK  157  A    between atoms: _383  and  _386
REMARK  158  A    between atoms: _386  and  _387
REMARK  159  A    between atoms: _390  and  _392
REMARK  160  A    between atoms: _392  and  _393
REMARK  161  A    between atoms: _392  and  _395
REMARK  162  A    between atoms: _398  and  _400
REMARK  163  A    between atoms: _400  and  _401
REMARK  164  A    between atoms: _400  and  _403
REMARK  165  A    between atoms: _403  and  _404
REMARK  166  A    between atoms: _407  and  _409
REMARK  167  A    between atoms: _409  and  _410
REMARK  168  A    between atoms: _409  and  _412
REMARK  169  A    between atoms: _412  and  _413
REMARK  170  A    between atoms: _413  and  _414
REMARK  171  A    between atoms: _414  and  _415
REMARK  172  A    between atoms: _415  and  _416
REMARK  173  A    between atoms: _420  and  _422
REMARK  174  A    between atoms: _422  and  _423
REMARK  175  A    between atoms: _422  and  _425
REMARK  176  A    between atoms: _425  and  _426
REMARK  177  A    between atoms: _426  and  _427
REMARK  178  A    between atoms: _429  and  _431
REMARK  179  A    between atoms: _431  and  _432
REMARK  180  A    between atoms: _431  and  _434
REMARK  181  A    between atoms: _434  and  _435
REMARK  182  A    between atoms: _438  and  _440
REMARK  183  A    between atoms: _440  and  _441
REMARK  184  A    between atoms: _443  and  _445
REMARK  185  A    between atoms: _445  and  _446
REMARK  186  A    between atoms: _448  and  _450
REMARK  187  A    between atoms: _450  and  _451
REMARK  188  A    between atoms: _450  and  _453
REMARK  189  A    between atoms: _453  and  _454
REMARK  190  A    between atoms: _457  and  _459
REMARK  191  A    between atoms: _459  and  _460
REMARK  192  A    between atoms: _462  and  _464
REMARK  193  A    between atoms: _464  and  _465
REMARK  194  A    between atoms: _467  and  _469
REMARK  195  A    between atoms: _469  and  _470
REMARK  196  A    between atoms: _469  and  _472
REMARK  197  A    between atoms: _472  and  _473
REMARK  198  A    between atoms: _476  and  _478
REMARK  199  A    between atoms: _478  and  _479
REMARK  200  A    between atoms: _478  and  _481
REMARK  201  A    between atoms: _484  and  _486
REMARK  202  A    between atoms: _486  and  _487
REMARK  203  A    between atoms: _486  and  _489
REMARK  204  A    between atoms: _489  and  _490
REMARK  205  A    between atoms: _493  and  _495
REMARK  206  A    between atoms: _495  and  _496
REMARK  207  A    between atoms: _495  and  _498
REMARK  208  A    between atoms: _498  and  _499
REMARK  209  A    between atoms: _503  and  _504
REMARK  210  A    between atoms: _509  and  _511
REMARK  211  A    between atoms: _511  and  _512
REMARK  212  A    between atoms: _511  and  _514
REMARK  213  A    between atoms: _517  and  _519
REMARK  214  A    between atoms: _519  and  _520
REMARK  215  A    between atoms: _519  and  _522
REMARK  216  A    between atoms: _522  and  _523
REMARK  217  A    between atoms: _528  and  _530
REMARK  218  A    between atoms: _530  and  _531
REMARK  219  A    between atoms: _530  and  _533
REMARK  220  A    between atoms: _536  and  _538
REMARK  221  A    between atoms: _538  and  _539
REMARK  222  A    between atoms: _538  and  _541
REMARK  223  A    between atoms: _541  and  _542
REMARK  224  A    between atoms: _545  and  _547
REMARK  225  A    between atoms: _547  and  _548
REMARK  226  A    between atoms: _550  and  _552
REMARK  227  A    between atoms: _552  and  _553
REMARK  228  A    between atoms: _552  and  _555
REMARK  229  A    between atoms: _555  and  _556
REMARK  230  A    between atoms: _556  and  _557
REMARK  231  A    between atoms: _557  and  _558
REMARK  232  A    between atoms: _567  and  _569
REMARK  233  A    between atoms: _569  and  _570
REMARK  234  A    between atoms: _569  and  _572
REMARK  235  A    between atoms: _572  and  _573
REMARK                            x       y       z     vdW  Elec       q    Type
REMARK                         _______ _______ _______ _____ _____    ______ ____
ROOT
ATOM      1  CA  LEU A   1      16.136  30.304  26.882  0.00  0.00    +0.133 C 
ENDROOT
BRANCH   1   2
ATOM      2  N   LEU A   1      16.931  29.375  27.692  0.00  0.00    -0.239 NA
ATOM      3  H   LEU A   1      16.956  28.368  27.432  0.00  0.00    +0.142 HD
ENDBRANCH   1   2
BRANCH   1   4
ATOM      4  C   LEU A   1      14.699  30.162  27.338  0.00  0.00    +0.224 C 
ATOM      5  O   LEU A   1      14.214  29.043  27.561  0.00  0.00    -0.287 OA
ENDBRANCH   1   4
BRANCH   1   6
ATOM      6  CB  LEU A   1      16.246  29.991  25.380  0.00  0.00    +0.025 C 
BRANCH   6   7
ATOM      7  CG  LEU A   1      17.676  29.851  24.803  0.00  0.00    +0.002 C 
ATOM      8  CD2 LEU A   1      18.495  31.095  25.145  0.00  0.00    +0.000 C 
ATOM      9  CD1 LEU A   1      17.639  29.622  23.292  0.00  0.00    +0.000 C 
ENDBRANCH   6   7
ENDBRANCH   1   6
TORSDOF 4
REMARK  Name = ../refined-set-2016/3nu9/3nu9_pocket.pdb
REMARK  235 active torsions:
REMARK  status: ('A' for Active; 'I' for Inactive)
REMARK    1  A    between atoms: _1  and  _3
REMARK    2  A    between atoms: _3  and  _4
REMARK    3  A    between atoms: _3  and  _6
REMARK    4  A    between atoms: _6  and  _7
REMARK    5  A    between atoms: _7  and  _8
REMARK    6  A    between atoms: _8  and  _9
REMARK    7  A    between atoms: _18  and  _20
REMARK    8  A    between atoms: _20  and  _21
REMARK    9  A    between atoms: _20  and  _23
REMARK   10  A    between atoms: _23  and  _24
REMARK   11  A    between atoms: _27  and  _29
REMARK   12  A    between atoms: _29  and  _30
REMARK   13  A    between atoms: _29  and  _32
REMARK   14  A    between atoms: _32  and  _33
REMARK   15  A    between atoms: _36  and  _38
REMARK   16  A    between atoms: _38  and  _39
REMARK   17  A    between atoms: _38  and  _41
REMARK   18  A    between atoms: _41  and  _42
REMARK   19  A    between atoms: _45  and  _47
REMARK   20  A    between atoms: _47  and  _48
REMARK   21  A    between atoms: _47  and  _50
REMARK   22  A    between atoms: _50  and  _51
REMARK   23  A    between atoms: _54  and  _56
REMARK   24  A    between atoms: _56  and  _57
REMARK   25  A    between atoms: _59  and  _61
REMARK   26  A    between atoms: _61  and  _62
REMARK   27  A    between atoms: _65  and  _67
REMARK   28  A    between atoms: _67  and  _68
REMARK   29  A    between atoms: _67  and  _70
REMARK   30  A    between atoms: _70  and  _71
REMARK   31  A    between atoms: _74  and  _76
REMARK   32  A    between atoms: _76  and  _77
REMARK   33  A    between atoms: _76  and  _79
REMARK   34  A    between atoms: _79  and  _80
REMARK   35  A    between atoms: _83  and  _85
REMARK   36  A    between atoms: _85  and  _86
REMARK   37  A    between atoms: _85  and  _88
REMARK   38  A    between atoms: _88  and  _89
REMARK   39  A    between atoms: _92  and  _94
REMARK   40  A    between atoms: _94  and  _95
REMARK   41  A    between atoms: _94  and  _97
REMARK   42  A    between atoms: _100  and  _102
REMARK   43  A    between atoms: _102  and  _103
REMARK   44  A    between atoms: _102  and  _105
REMARK   45  A    between atoms: _105  and  _106
REMARK   46  A    between atoms: _109  and  _111
REMARK   47  A    between atoms: _111  and  _112
REMARK   48  A    between atoms: _111  and  _114
REMARK   49  A    between atoms: _114  and  _115
REMARK   50  A    between atoms: _115  and  _116
REMARK   51  A    between atoms: _116  and  _117
REMARK   52  A    between atoms: _117  and  _118
REMARK   53  A    between atoms: _122  and  _124
REMARK   54  A    between atoms: _124  and  _125
REMARK   55  A    between atoms: _124  and  _127
REMARK   56  A    between atoms: _127  and  _128
REMARK   57  A    between atoms: _128  and  _129
REMARK   58  A    between atoms: _131  and  _133
REMARK   59  A    between atoms: _133  and  _134
REMARK   60  A    between atoms: _133  and  _136
REMARK   61  A    between atoms: _136  and  _137
REMARK   62  A    between atoms: _140  and  _142
REMARK   63  A    between atoms: _142  and  _143
REMARK   64  A    between atoms: _145  and  _147
REMARK   65  A    between atoms: _147  and  _148
REMARK   66  A    between atoms: _150  and  _152
REMARK   67  A    between atoms: _152  and  _153
REMARK   68  A    between atoms: _152  and  _155
REMARK   69  A    between atoms: _155  and  _156
REMARK   70  A    between atoms: _159  and  _161
REMARK   71  A    between atoms: _161  and  _162
REMARK   72  A    between atoms: _164  and  _166
REMARK   73  A    between atoms: _166  and  _167
REMARK   74  A    between atoms: _169  and  _171
REMARK   75  A    between atoms: _171  and  _172
REMARK   76  A    between atoms: _171  and  _174
REMARK   77  A    between atoms: _174  and  _175
REMARK   78  A    between atoms: _181  and  _183
REMARK   79  A    between atoms: _183  and  _184
REMARK   80  A    between atoms: _183  and  _186
REMARK   81  A    between atoms: _186  and  _187
REMARK   82  A    between atoms: _190  and  _192
REMARK   83  A    between atoms: _192  and  _193
REMARK   84  A    between atoms: _192  and  _195
REMARK   85  A    between atoms: _198  and  _200
REMARK   86  A    between atoms: _200  and  _201
REMARK   87  A    between atoms: _200  and  _203
REMARK   88  A    between atoms: _203  and  _204
REMARK   89  A    between atoms: _208  and  _209
REMARK   90  A    between atoms: _214  and  _216
REMARK   91  A    between atoms: _216  and  _217
REMARK   92  A    between atoms: _216  and  _219
REMARK   93  A    between atoms: _219  and  _220
REMARK   94  A    between atoms: _224  and  _225
REMARK   95  A    between atoms: _230  and  _232
REMARK   96  A    between atoms: _232  and  _233
REMARK   97  A    between atoms: _232  and  _235
REMARK   98  A    between atoms: _238  and  _240
REMARK   99  A    between atoms: _240  and  _241
REMARK  100  A    between atoms: _240  and  _243
REMARK  101  A    between atoms: _243  and  _244
REMARK  102  A    between atoms: _249  and  _251
REMARK  103  A    between atoms: _251  and  _252
REMARK  104  A    between atoms: _251  and  _254
REMARK  105  A    between atoms: _257  and  _259
REMARK  106  A    between atoms: _259  and  _260
REMARK  107  A    between atoms: _259  and  _262
REMARK  108  A    between atoms: _262  and  _263
REMARK  109  A    between atoms: _266  and  _268
REMARK  110  A    between atoms: _268  and  _269
REMARK  111  A    between atoms: _271  and  _273
REMARK  112  A    between atoms: _273  and  _274
REMARK  113  A    between atoms: _273  and  _276
REMARK  114  A    between atoms: _276  and  _277
REMARK  115  A    between atoms: _277  and  _278
REMARK  116  A    between atoms: _278  and  _279
REMARK  117  A    between atoms: _288  and  _290
REMARK  118  A    between atoms: _290  and  _291
REMARK  119  A    between atoms: _290  and  _293
REMARK  120  A    between atoms: _293  and  _294
REMARK  121  A    between atoms: _299  and  _301
REMARK  122  A    between atoms: _301  and  _302
REMARK  123  A    between atoms: _301  and  _304
REMARK  124  A    between atoms: _304  and  _305
REMARK  125  A    between atoms: _305  and  _306
REMARK  126  A    between atoms: _306  and  _307
REMARK  127  A    between atoms: _316  and  _318
REMARK  128  A    between atoms: _318  and  _319
REMARK  129  A    between atoms: _318  and  _321
REMARK  130  A    between atoms: _321  and  _322
REMARK  131  A    between atoms: _325  and  _327
REMARK  132  A    between atoms: _327  and  _328
REMARK  133  A    between atoms: _327  and  _330
REMARK  134  A    between atoms: _330  and  _331
REMARK  135  A    between atoms: _334  and  _336
REMARK  136  A    between atoms: _336  and  _337
REMARK  137  A    between atoms: _336  and  _339
REMARK  138  A    between atoms: _339  and  _340
REMARK  139  A    between atoms: _343  and  _345
REMARK  140  A    between atoms: _345  and  _346
REMARK  141  A    between atoms: _345  and  _348
REMARK  142  A    between atoms: _348  and  _349
REMARK  143  A    between atoms: _352  and  _354
REMARK  144  A    between atoms: _354  and  _355
REMARK  145  A    between atoms: _357  and  _359
REMARK  146  A    between atoms: _359  and  _360
REMARK  147  A    between atoms: _363  and  _365
REMARK  148  A    between atoms: _365  and  _366
REMARK  149  A    between atoms: _365  and  _368
REMARK  150  A    between atoms: _368  and  _369
REMARK  151  A    between atoms: _372  and  _374
REMARK  152  A    between atoms: _374  and  _375
REMARK  153  A    between atoms: _374  and  _377
REMARK  154  A    between atoms: _377  and  _378
REMARK  155  A    between atoms: _381  and  _383
REMARK  156  A    between atoms: _383  and  _384
REMARK  157  A    between atoms: _383  and  _386
REMARK  158  A    between atoms: _386  and  _387
REMARK  159  A    between atoms: _390  and  _392
REMARK  160  A    between atoms: _392  and  _393
REMARK  161  A    between atoms: _392  and  _395
REMARK  162  A    between atoms: _398  and  _400
REMARK  163  A    between atoms: _400  and  _401
REMARK  164  A    between atoms: _400  and  _403
REMARK  165  A    between atoms: _403  and  _404
REMARK  166  A    between atoms: _407  and  _409
REMARK  167  A    between atoms: _409  and  _410
REMARK  168  A    between atoms: _409  and  _412
REMARK  169  A    between atoms: _412  and  _413
REMARK  170  A    between atoms: _413  and  _414
REMARK  171  A    between atoms: _414  and  _415
REMARK  172  A    between atoms: _415  and  _416
REMARK  173  A    between atoms: _420  and  _422
REMARK  174  A    between atoms: _422  and  _423
REMARK  175  A    between atoms: _422  and  _425
REMARK  176  A    between atoms: _425  and  _426
REMARK  177  A    between atoms: _426  and  _427
REMARK  178  A    between atoms: _429  and  _431
REMARK  179  A    between atoms: _431  and  _432
REMARK  180  A    between atoms: _431  and  _434
REMARK  181  A    between atoms: _434  and  _435
REMARK  182  A    between atoms: _438  and  _440
REMARK  183  A    between atoms: _440  and  _441
REMARK  184  A    between atoms: _443  and  _445
REMARK  185  A    between atoms: _445  and  _446
REMARK  186  A    between atoms: _448  and  _450
REMARK  187  A    between atoms: _450  and  _451
REMARK  188  A    between atoms: _450  and  _453
REMARK  189  A    between atoms: _453  and  _454
REMARK  190  A    between atoms: _457  and  _459
REMARK  191  A    between atoms: _459  and  _460
REMARK  192  A    between atoms: _462  and  _464
REMARK  193  A    between atoms: _464  and  _465
REMARK  194  A    between atoms: _467  and  _469
REMARK  195  A    between atoms: _469  and  _470
REMARK  196  A    between atoms: _469  and  _472
REMARK  197  A    between atoms: _472  and  _473
REMARK  198  A    between atoms: _476  and  _478
REMARK  199  A    between atoms: _478  and  _479
REMARK  200  A    between atoms: _478  and  _481
REMARK  201  A    between atoms: _484  and  _486
REMARK  202  A    between atoms: _486  and  _487
REMARK  203  A    between atoms: _486  and  _489
REMARK  204  A    between atoms: _489  and  _490
REMARK  205  A    between atoms: _493  and  _495
REMARK  206  A    between atoms: _495  and  _496
REMARK  207  A    between atoms: _495  and  _498
REMARK  208  A    between atoms: _498  and  _499
REMARK  209  A    between atoms: _503  and  _504
REMARK  210  A    between atoms: _509  and  _511
REMARK  211  A    between atoms: _511  and  _512
REMARK  212  A    between atoms: _511  and  _514
REMARK  213  A    between atoms: _517  and  _519
REMARK  214  A    between atoms: _519  and  _520
REMARK  215  A    between atoms: _519  and  _522
REMARK  216  A    between atoms: _522  and  _523
REMARK  217  A    between atoms: _528  and  _530
REMARK  218  A    between atoms: _530  and  _531
REMARK  219  A    between atoms: _530  and  _533
REMARK  220  A    between atoms: _536  and  _538
REMARK  221  A    between atoms: _538  and  _539
REMARK  222  A    between atoms: _538  and  _541
REMARK  223  A    between atoms: _541  and  _542
REMARK  224  A    between atoms: _545  and  _547
REMARK  225  A    between atoms: _547  and  _548
REMARK  226  A    between atoms: _550  and  _552
REMARK  227  A    between atoms: _552  and  _553
REMARK  228  A    between atoms: _552  and  _555
REMARK  229  A    between atoms: _555  and  _556
REMARK  230  A    between atoms: _556  and  _557
REMARK  231  A    between atoms: _557  and  _558
REMARK  232  A    between atoms: _567  and  _569
REMARK  233  A    between atoms: _569  and  _570
REMARK  234  A    between atoms: _569  and  _572
REMARK  235  A    between atoms: _572  and  _573
REMARK                            x       y       z     vdW  Elec       q    Type
REMARK                         _______ _______ _______ _____ _____    ______ ____
ROOT
ATOM      1  C   VAL A   5      14.855  21.266  26.356  0.00  0.00    +0.241 C 
ATOM      2  N   ILE A   6      15.532  20.177  26.688  0.00  0.00    -0.297 N 
ATOM      3  H   ILE A   6      15.057  19.253  26.636  0.00  0.00    +0.150 HD
ATOM      4  O   VAL A   5      15.271  22.431  26.558  0.00  0.00    -0.273 OA
ENDROOT
BRANCH   2   5
ATOM      5  CA  ILE A   6      16.911  20.231  27.121  0.00  0.00    +0.149 C 
BRANCH   5   6
ATOM      6  C   ILE A   6      17.768  19.967  25.906  0.00  0.00    +0.241 C 
ATOM      7  N   GLY A   7      18.521  20.989  25.513  0.00  0.00    -0.295 N 
ATOM      8  H   GLY A   7      18.531  21.854  26.090  0.00  0.00    +0.150 HD
ATOM      9  O   ILE A   6      17.755  18.840  25.336  0.00  0.00    -0.273 OA
BRANCH   7  10
ATOM     10  CA  GLY A   7      19.330  20.945  24.310  0.00  0.00    +0.176 C 
BRANCH  10  11
ATOM     11  C   GLY A   7      20.773  20.591  24.563  0.00  0.00    +0.243 C 
ATOM     12  O   GLY A   7      21.163  20.361  25.696  0.00  0.00    -0.273 OA
ATOM     13  N   ARG A   8      21.579  20.571  23.508  0.00  0.00    -0.297 N 
ATOM     14  H   ARG A   8      21.242  20.924  22.590  0.00  0.00    +0.150 HD
BRANCH  13  15
ATOM     15  CA  ARG A   8      22.937  20.054  23.635  0.00  0.00    +0.149 C 
BRANCH  15  16
ATOM     16  C   ARG A   8      23.794  20.857  24.620  0.00  0.00    +0.241 C 
ATOM     17  O   ARG A   8      24.721  20.316  25.183  0.00  0.00    -0.273 OA
ATOM     18  N   ASN A   9      23.499  22.146  24.812  0.00  0.00    -0.298 N 
ATOM     19  H   ASN A   9      22.682  22.574  24.331  0.00  0.00    +0.150 HD
BRANCH  18  20
ATOM     20  CA  ASN A   9      24.332  22.949  25.701  0.00  0.00    +0.146 C 
BRANCH  20  21
ATOM     21  C   ASN A   9      24.340  22.376  27.133  0.00  0.00    +0.227 C 
ATOM     22  O   ASN A   9      25.362  22.429  27.839  0.00  0.00    -0.286 OA
ENDBRANCH  20  21
BRANCH  20  23
ATOM     23  CB  ASN A   9      23.906  24.434  25.697  0.00  0.00    +0.112 C 
BRANCH  23  24
ATOM     24  CG  ASN A   9      22.588  24.687  26.405  0.00  0.00    +0.222 C 
ATOM     25  ND2 ASN A   9      22.576  25.631  27.358  0.00  0.00    -0.329 N 
ATOM     26 HD21 ASN A   9      21.695  25.844  27.868  0.00  0.00    +0.145 HD
ATOM     27 HD22 ASN A   9      23.448  26.150  27.587  0.00  0.00    +0.145 HD
ATOM     28  OD1 ASN A   9      21.590  24.048  26.098  0.00  0.00    -0.275 OA
ENDBRANCH  23  24
ENDBRANCH  20  23
ENDBRANCH  18  20
ENDBRANCH  15  16
BRANCH  15  29
ATOM     29  CB  ARG A   8      23.642  20.008  22.275  0.00  0.00    +0.033 C 
BRANCH  29  30
ATOM     30  CG  ARG A   8      22.984  18.984  21.266  0.00  0.00    +0.045 C 
BRANCH  30  31
ATOM     31  CD  ARG A   8      23.809  18.881  19.970  0.00  0.00    +0.174 C 
BRANCH  31  32
ATOM     32  NE  ARG A   8      23.887  20.164  19.231  0.00  0.00    -0.265 N 
ATOM     33  CZ  ARG A   8      24.899  21.031  19.273  0.00  0.00    +0.342 C 
ATOM     34  NH2 ARG A   8      26.011  20.785  19.975  0.00  0.00    -0.292 N 
ATOM     35 HH21 ARG A   8      26.104  19.897  20.508  0.00  0.00    +0.255 HD
ATOM     36 HH22 ARG A   8      26.783  21.482  19.988  0.00  0.00    +0.255 HD
ATOM     37  NH1 ARG A   8      24.802  22.172  18.604  0.00  0.00    -0.292 N 
ATOM     38 HH11 ARG A   8      25.584  22.857  18.628  0.00  0.00    +0.255 HD
ATOM     39 HH12 ARG A   8      23.944  22.382  18.055  0.00  0.00    +0.255 HD
ATOM     40  HE  ARG A   8      23.079  20.410  18.625  0.00  0.00    +0.259 HD
ENDBRANCH  31  32
ENDBRANCH  30  31
ENDBRANCH  29  30
ENDBRANCH  15  29
ENDBRANCH  13  15
ENDBRANCH  10  11
ENDBRANCH   7  10
ENDBRANCH   5   6
BRANCH   5  41
ATOM     41  CB  ILE A   6      17.190  19.172  28.256  0.00  0.00    +0.027 C 
ATOM     42  CG2 ILE A   6      18.662  19.196  28.706  0.00  0.00    +0.002 C 
BRANCH  41  43
ATOM     43  CG1 ILE A   6      16.229  19.339  29.450  0.00  0.00    +0.002 C 
ATOM     44  CD1 ILE A   6      16.051  20.750  29.963  0.00  0.00    +0.000 C 
ENDBRANCH  41  43
ENDBRANCH   5  41
ENDBRANCH   2   5
BRANCH   1  45
ATOM     45  CA  VAL A   5      13.496  20.997  25.742  0.00  0.00    +0.149 C 
BRANCH  45  48
ATOM     46  C   ASN A   4      11.403  21.280  26.875  0.00  0.00    +0.241 C 
ATOM     47  O   ASN A   4      11.239  20.072  26.865  0.00  0.00    -0.273 OA
ATOM     48  N   VAL A   5      12.477  21.852  26.321  0.00  0.00    -0.297 N 
ATOM     49  H   VAL A   5      12.580  22.887  26.305  0.00  0.00    +0.150 HD
BRANCH  46  50
ATOM     50  CA  ASN A   4      10.330  22.179  27.489  0.00  0.00    +0.158 C 
BRANCH  50  52
ATOM     51  C   VAL A   3       8.769  21.954  25.632  0.00  0.00    +0.241 C 
ATOM     52  N   ASN A   4       9.028  21.779  26.936  0.00  0.00    -0.297 N 
ATOM     53  H   ASN A   4       8.307  21.360  27.557  0.00  0.00    +0.150 HD
ATOM     54  O   VAL A   3       9.584  22.484  24.858  0.00  0.00    -0.273 OA
BRANCH  51  55
ATOM     55  CA  VAL A   3       7.419  21.436  25.085  0.00  0.00    +0.149 C 
BRANCH  55  58
ATOM     56  C   PRO A   2       5.624  22.536  23.744  0.00  0.00    +0.241 C 
ATOM     57  O   PRO A   2       4.712  21.982  24.363  0.00  0.00    -0.273 OA
ATOM     58  N   VAL A   3       6.923  22.345  24.020  0.00  0.00    -0.297 N 
ATOM     59  H   VAL A   3       7.625  22.864  23.455  0.00  0.00    +0.150 HD
BRANCH  56  63
ATOM     60  C   THR A   1       6.666  25.420  23.284  0.00  0.00    +0.244 C 
ATOM     61  O   THR A   1       6.098  25.495  24.369  0.00  0.00    -0.273 OA
ATOM     62  N   PRO A   2       6.318  24.526  22.329  0.00  0.00    -0.272 N 
ATOM     63  CA  PRO A   2       5.273  23.530  22.626  0.00  0.00    +0.152 C 
ATOM     64  CB  PRO A   2       5.051  22.809  21.288  0.00  0.00    +0.031 C 
ATOM     65  CG  PRO A   2       6.275  23.089  20.477  0.00  0.00    +0.024 C 
ATOM     66  CD  PRO A   2       6.850  24.389  20.955  0.00  0.00    +0.094 C 
BRANCH  60  67
ATOM     67  CA  THR A   1       7.807  26.380  22.987  0.00  0.00    +0.172 C 
BRANCH  67  68
ATOM     68  N   THR A   1       7.477  27.631  23.609  0.00  0.00    -0.236 NA
ATOM     69  H   THR A   1       7.394  27.671  24.645  0.00  0.00    +0.142 HD
ENDBRANCH  67  68
BRANCH  67  70
ATOM     70  CB  THR A   1       9.182  25.835  23.497  0.00  0.00    +0.135 C 
ATOM     71  CG2 THR A   1       9.233  25.771  24.996  0.00  0.00    +0.034 C 
BRANCH  70  72
ATOM     72  OG1 THR A   1       9.395  24.529  22.973  0.00  0.00    -0.383 OA
ATOM     73  HG1 THR A   1       8.668  23.930  23.277  0.00  0.00    +0.210 HD
ENDBRANCH  70  72
ENDBRANCH  67  70
ENDBRANCH  60  67
ENDBRANCH  56  63
ENDBRANCH  55  58
BRANCH  55  74
ATOM     74  CB  VAL A   3       7.562  19.960  24.586  0.00  0.00    +0.027 C 
ATOM     75  CG2 VAL A   3       8.161  19.037  25.672  0.00  0.00    +0.002 C 
ATOM     76  CG1 VAL A   3       8.420  19.873  23.346  0.00  0.00    +0.002 C 
ENDBRANCH  55  74
ENDBRANCH  51  55
ENDBRANCH  50  52
BRANCH  50  77
ATOM     77  CB  ASN A   4      10.378  22.081  29.024  0.00  0.00    +0.114 C 
BRANCH  77  78
ATOM     78  CG  ASN A   4       9.351  22.960  29.707  0.00  0.00    +0.222 C 
ATOM     79  OD1 ASN A   4       8.707  22.552  30.670  0.00  0.00    -0.275 OA
ATOM     80  ND2 ASN A   4       9.172  24.149  29.191  0.00  0.00    -0.329 N 
ATOM     81 HD21 ASN A   4       8.461  24.790  29.597  0.00  0.00    +0.145 HD
ATOM     82 HD22 ASN A   4       9.741  24.453  28.375  0.00  0.00    +0.145 HD
ENDBRANCH  77  78
ENDBRANCH  50  77
ENDBRANCH  46  50
ENDBRANCH  45  48
BRANCH  45  83
ATOM     83  CB  VAL A   5      13.592  21.038  24.160  0.00  0.00    +0.027 C 
ATOM     84  CG2 VAL A   5      14.132  22.326  23.682  0.00  0.00    +0.002 C 
ATOM     85  CG1 VAL A   5      12.235  20.694  23.475  0.00  0.00    +0.002 C 
ENDBRANCH  45  83
ENDBRANCH   1  45
TORSDOF 31
REMARK  Name = ../refined-set-2016/3nu9/3nu9_pocket.pdb
REMARK  235 active torsions:
REMARK  status: ('A' for Active; 'I' for Inactive)
REMARK    1  A    between atoms: _1  and  _3
REMARK    2  A    between atoms: _3  and  _4
REMARK    3  A    between atoms: _3  and  _6
REMARK    4  A    between atoms: _6  and  _7
REMARK    5  A    between atoms: _7  and  _8
REMARK    6  A    between atoms: _8  and  _9
REMARK    7  A    between atoms: _18  and  _20
REMARK    8  A    between atoms: _20  and  _21
REMARK    9  A    between atoms: _20  and  _23
REMARK   10  A    between atoms: _23  and  _24
REMARK   11  A    between atoms: _27  and  _29
REMARK   12  A    between atoms: _29  and  _30
REMARK   13  A    between atoms: _29  and  _32
REMARK   14  A    between atoms: _32  and  _33
REMARK   15  A    between atoms: _36  and  _38
REMARK   16  A    between atoms: _38  and  _39
REMARK   17  A    between atoms: _38  and  _41
REMARK   18  A    between atoms: _41  and  _42
REMARK   19  A    between atoms: _45  and  _47
REMARK   20  A    between atoms: _47  and  _48
REMARK   21  A    between atoms: _47  and  _50
REMARK   22  A    between atoms: _50  and  _51
REMARK   23  A    between atoms: _54  and  _56
REMARK   24  A    between atoms: _56  and  _57
REMARK   25  A    between atoms: _59  and  _61
REMARK   26  A    between atoms: _61  and  _62
REMARK   27  A    between atoms: _65  and  _67
REMARK   28  A    between atoms: _67  and  _68
REMARK   29  A    between atoms: _67  and  _70
REMARK   30  A    between atoms: _70  and  _71
REMARK   31  A    between atoms: _74  and  _76
REMARK   32  A    between atoms: _76  and  _77
REMARK   33  A    between atoms: _76  and  _79
REMARK   34  A    between atoms: _79  and  _80
REMARK   35  A    between atoms: _83  and  _85
REMARK   36  A    between atoms: _85  and  _86
REMARK   37  A    between atoms: _85  and  _88
REMARK   38  A    between atoms: _88  and  _89
REMARK   39  A    between atoms: _92  and  _94
REMARK   40  A    between atoms: _94  and  _95
REMARK   41  A    between atoms: _94  and  _97
REMARK   42  A    between atoms: _100  and  _102
REMARK   43  A    between atoms: _102  and  _103
REMARK   44  A    between atoms: _102  and  _105
REMARK   45  A    between atoms: _105  and  _106
REMARK   46  A    between atoms: _109  and  _111
REMARK   47  A    between atoms: _111  and  _112
REMARK   48  A    between atoms: _111  and  _114
REMARK   49  A    between atoms: _114  and  _115
REMARK   50  A    between atoms: _115  and  _116
REMARK   51  A    between atoms: _116  and  _117
REMARK   52  A    between atoms: _117  and  _118
REMARK   53  A    between atoms: _122  and  _124
REMARK   54  A    between atoms: _124  and  _125
REMARK   55  A    between atoms: _124  and  _127
REMARK   56  A    between atoms: _127  and  _128
REMARK   57  A    between atoms: _128  and  _129
REMARK   58  A    between atoms: _131  and  _133
REMARK   59  A    between atoms: _133  and  _134
REMARK   60  A    between atoms: _133  and  _136
REMARK   61  A    between atoms: _136  and  _137
REMARK   62  A    between atoms: _140  and  _142
REMARK   63  A    between atoms: _142  and  _143
REMARK   64  A    between atoms: _145  and  _147
REMARK   65  A    between atoms: _147  and  _148
REMARK   66  A    between atoms: _150  and  _152
REMARK   67  A    between atoms: _152  and  _153
REMARK   68  A    between atoms: _152  and  _155
REMARK   69  A    between atoms: _155  and  _156
REMARK   70  A    between atoms: _159  and  _161
REMARK   71  A    between atoms: _161  and  _162
REMARK   72  A    between atoms: _164  and  _166
REMARK   73  A    between atoms: _166  and  _167
REMARK   74  A    between atoms: _169  and  _171
REMARK   75  A    between atoms: _171  and  _172
REMARK   76  A    between atoms: _171  and  _174
REMARK   77  A    between atoms: _174  and  _175
REMARK   78  A    between atoms: _181  and  _183
REMARK   79  A    between atoms: _183  and  _184
REMARK   80  A    between atoms: _183  and  _186
REMARK   81  A    between atoms: _186  and  _187
REMARK   82  A    between atoms: _190  and  _192
REMARK   83  A    between atoms: _192  and  _193
REMARK   84  A    between atoms: _192  and  _195
REMARK   85  A    between atoms: _198  and  _200
REMARK   86  A    between atoms: _200  and  _201
REMARK   87  A    between atoms: _200  and  _203
REMARK   88  A    between atoms: _203  and  _204
REMARK   89  A    between atoms: _208  and  _209
REMARK   90  A    between atoms: _214  and  _216
REMARK   91  A    between atoms: _216  and  _217
REMARK   92  A    between atoms: _216  and  _219
REMARK   93  A    between atoms: _219  and  _220
REMARK   94  A    between atoms: _224  and  _225
REMARK   95  A    between atoms: _230  and  _232
REMARK   96  A    between atoms: _232  and  _233
REMARK   97  A    between atoms: _232  and  _235
REMARK   98  A    between atoms: _238  and  _240
REMARK   99  A    between atoms: _240  and  _241
REMARK  100  A    between atoms: _240  and  _243
REMARK  101  A    between atoms: _243  and  _244
REMARK  102  A    between atoms: _249  and  _251
REMARK  103  A    between atoms: _251  and  _252
REMARK  104  A    between atoms: _251  and  _254
REMARK  105  A    between atoms: _257  and  _259
REMARK  106  A    between atoms: _259  and  _260
REMARK  107  A    between atoms: _259  and  _262
REMARK  108  A    between atoms: _262  and  _263
REMARK  109  A    between atoms: _266  and  _268
REMARK  110  A    between atoms: _268  and  _269
REMARK  111  A    between atoms: _271  and  _273
REMARK  112  A    between atoms: _273  and  _274
REMARK  113  A    between atoms: _273  and  _276
REMARK  114  A    between atoms: _276  and  _277
REMARK  115  A    between atoms: _277  and  _278
REMARK  116  A    between atoms: _278  and  _279
REMARK  117  A    between atoms: _288  and  _290
REMARK  118  A    between atoms: _290  and  _291
REMARK  119  A    between atoms: _290  and  _293
REMARK  120  A    between atoms: _293  and  _294
REMARK  121  A    between atoms: _299  and  _301
REMARK  122  A    between atoms: _301  and  _302
REMARK  123  A    between atoms: _301  and  _304
REMARK  124  A    between atoms: _304  and  _305
REMARK  125  A    between atoms: _305  and  _306
REMARK  126  A    between atoms: _306  and  _307
REMARK  127  A    between atoms: _316  and  _318
REMARK  128  A    between atoms: _318  and  _319
REMARK  129  A    between atoms: _318  and  _321
REMARK  130  A    between atoms: _321  and  _322
REMARK  131  A    between atoms: _325  and  _327
REMARK  132  A    between atoms: _327  and  _328
REMARK  133  A    between atoms: _327  and  _330
REMARK  134  A    between atoms: _330  and  _331
REMARK  135  A    between atoms: _334  and  _336
REMARK  136  A    between atoms: _336  and  _337
REMARK  137  A    between atoms: _336  and  _339
REMARK  138  A    between atoms: _339  and  _340
REMARK  139  A    between atoms: _343  and  _345
REMARK  140  A    between atoms: _345  and  _346
REMARK  141  A    between atoms: _345  and  _348
REMARK  142  A    between atoms: _348  and  _349
REMARK  143  A    between atoms: _352  and  _354
REMARK  144  A    between atoms: _354  and  _355
REMARK  145  A    between atoms: _357  and  _359
REMARK  146  A    between atoms: _359  and  _360
REMARK  147  A    between atoms: _363  and  _365
REMARK  148  A    between atoms: _365  and  _366
REMARK  149  A    between atoms: _365  and  _368
REMARK  150  A    between atoms: _368  and  _369
REMARK  151  A    between atoms: _372  and  _374
REMARK  152  A    between atoms: _374  and  _375
REMARK  153  A    between atoms: _374  and  _377
REMARK  154  A    between atoms: _377  and  _378
REMARK  155  A    between atoms: _381  and  _383
REMARK  156  A    between atoms: _383  and  _384
REMARK  157  A    between atoms: _383  and  _386
REMARK  158  A    between atoms: _386  and  _387
REMARK  159  A    between atoms: _390  and  _392
REMARK  160  A    between atoms: _392  and  _393
REMARK  161  A    between atoms: _392  and  _395
REMARK  162  A    between atoms: _398  and  _400
REMARK  163  A    between atoms: _400  and  _401
REMARK  164  A    between atoms: _400  and  _403
REMARK  165  A    between atoms: _403  and  _404
REMARK  166  A    between atoms: _407  and  _409
REMARK  167  A    between atoms: _409  and  _410
REMARK  168  A    between atoms: _409  and  _412
REMARK  169  A    between atoms: _412  and  _413
REMARK  170  A    between atoms: _413  and  _414
REMARK  171  A    between atoms: _414  and  _415
REMARK  172  A    between atoms: _415  and  _416
REMARK  173  A    between atoms: _420  and  _422
REMARK  174  A    between atoms: _422  and  _423
REMARK  175  A    between atoms: _422  and  _425
REMARK  176  A    between atoms: _425  and  _426
REMARK  177  A    between atoms: _426  and  _427
REMARK  178  A    between atoms: _429  and  _431
REMARK  179  A    between atoms: _431  and  _432
REMARK  180  A    between atoms: _431  and  _434
REMARK  181  A    between atoms: _434  and  _435
REMARK  182  A    between atoms: _438  and  _440
REMARK  183  A    between atoms: _440  and  _441
REMARK  184  A    between atoms: _443  and  _445
REMARK  185  A    between atoms: _445  and  _446
REMARK  186  A    between atoms: _448  and  _450
REMARK  187  A    between atoms: _450  and  _451
REMARK  188  A    between atoms: _450  and  _453
REMARK  189  A    between atoms: _453  and  _454
REMARK  190  A    between atoms: _457  and  _459
REMARK  191  A    between atoms: _459  and  _460
REMARK  192  A    between atoms: _462  and  _464
REMARK  193  A    between atoms: _464  and  _465
REMARK  194  A    between atoms: _467  and  _469
REMARK  195  A    between atoms: _469  and  _470
REMARK  196  A    between atoms: _469  and  _472
REMARK  197  A    between atoms: _472  and  _473
REMARK  198  A    between atoms: _476  and  _478
REMARK  199  A    between atoms: _478  and  _479
REMARK  200  A    between atoms: _478  and  _481
REMARK  201  A    between atoms: _484  and  _486
REMARK  202  A    between atoms: _486  and  _487
REMARK  203  A    between atoms: _486  and  _489
REMARK  204  A    between atoms: _489  and  _490
REMARK  205  A    between atoms: _493  and  _495
REMARK  206  A    between atoms: _495  and  _496
REMARK  207  A    between atoms: _495  and  _498
REMARK  208  A    between atoms: _498  and  _499
REMARK  209  A    between atoms: _503  and  _504
REMARK  210  A    between atoms: _509  and  _511
REMARK  211  A    between atoms: _511  and  _512
REMARK  212  A    between atoms: _511  and  _514
REMARK  213  A    between atoms: _517  and  _519
REMARK  214  A    between atoms: _519  and  _520
REMARK  215  A    between atoms: _519  and  _522
REMARK  216  A    between atoms: _522  and  _523
REMARK  217  A    between atoms: _528  and  _530
REMARK  218  A    between atoms: _530  and  _531
REMARK  219  A    between atoms: _530  and  _533
REMARK  220  A    between atoms: _536  and  _538
REMARK  221  A    between atoms: _538  and  _539
REMARK  222  A    between atoms: _538  and  _541
REMARK  223  A    between atoms: _541  and  _542
REMARK  224  A    between atoms: _545  and  _547
REMARK  225  A    between atoms: _547  and  _548
REMARK  226  A    between atoms: _550  and  _552
REMARK  227  A    between atoms: _552  and  _553
REMARK  228  A    between atoms: _552  and  _555
REMARK  229  A    between atoms: _555  and  _556
REMARK  230  A    between atoms: _556  and  _557
REMARK  231  A    between atoms: _557  and  _558
REMARK  232  A    between atoms: _567  and  _569
REMARK  233  A    between atoms: _569  and  _570
REMARK  234  A    between atoms: _569  and  _572
REMARK  235  A    between atoms: _572  and  _573
REMARK                            x       y       z     vdW  Elec       q    Type
REMARK                         _______ _______ _______ _____ _____    ______ ____
ROOT
ATOM      1  O   HOH     1       5.059  13.421  14.532  0.00  0.00    +0.000 OA
ENDROOT
TORSDOF 0
REMARK  Name = ../refined-set-2016/3nu9/3nu9_pocket.pdb
REMARK  235 active torsions:
REMARK  status: ('A' for Active; 'I' for Inactive)
REMARK    1  A    between atoms: _1  and  _3
REMARK    2  A    between atoms: _3  and  _4
REMARK    3  A    between atoms: _3  and  _6
REMARK    4  A    between atoms: _6  and  _7
REMARK    5  A    between atoms: _7  and  _8
REMARK    6  A    between atoms: _8  and  _9
REMARK    7  A    between atoms: _18  and  _20
REMARK    8  A    between atoms: _20  and  _21
REMARK    9  A    between atoms: _20  and  _23
REMARK   10  A    between atoms: _23  and  _24
REMARK   11  A    between atoms: _27  and  _29
REMARK   12  A    between atoms: _29  and  _30
REMARK   13  A    between atoms: _29  and  _32
REMARK   14  A    between atoms: _32  and  _33
REMARK   15  A    between atoms: _36  and  _38
REMARK   16  A    between atoms: _38  and  _39
REMARK   17  A    between atoms: _38  and  _41
REMARK   18  A    between atoms: _41  and  _42
REMARK   19  A    between atoms: _45  and  _47
REMARK   20  A    between atoms: _47  and  _48
REMARK   21  A    between atoms: _47  and  _50
REMARK   22  A    between atoms: _50  and  _51
REMARK   23  A    between atoms: _54  and  _56
REMARK   24  A    between atoms: _56  and  _57
REMARK   25  A    between atoms: _59  and  _61
REMARK   26  A    between atoms: _61  and  _62
REMARK   27  A    between atoms: _65  and  _67
REMARK   28  A    between atoms: _67  and  _68
REMARK   29  A    between atoms: _67  and  _70
REMARK   30  A    between atoms: _70  and  _71
REMARK   31  A    between atoms: _74  and  _76
REMARK   32  A    between atoms: _76  and  _77
REMARK   33  A    between atoms: _76  and  _79
REMARK   34  A    between atoms: _79  and  _80
REMARK   35  A    between atoms: _83  and  _85
REMARK   36  A    between atoms: _85  and  _86
REMARK   37  A    between atoms: _85  and  _88
REMARK   38  A    between atoms: _88  and  _89
REMARK   39  A    between atoms: _92  and  _94
REMARK   40  A    between atoms: _94  and  _95
REMARK   41  A    between atoms: _94  and  _97
REMARK   42  A    between atoms: _100  and  _102
REMARK   43  A    between atoms: _102  and  _103
REMARK   44  A    between atoms: _102  and  _105
REMARK   45  A    between atoms: _105  and  _106
REMARK   46  A    between atoms: _109  and  _111
REMARK   47  A    between atoms: _111  and  _112
REMARK   48  A    between atoms: _111  and  _114
REMARK   49  A    between atoms: _114  and  _115
REMARK   50  A    between atoms: _115  and  _116
REMARK   51  A    between atoms: _116  and  _117
REMARK   52  A    between atoms: _117  and  _118
REMARK   53  A    between atoms: _122  and  _124
REMARK   54  A    between atoms: _124  and  _125
REMARK   55  A    between atoms: _124  and  _127
REMARK   56  A    between atoms: _127  and  _128
REMARK   57  A    between atoms: _128  and  _129
REMARK   58  A    between atoms: _131  and  _133
REMARK   59  A    between atoms: _133  and  _134
REMARK   60  A    between atoms: _133  and  _136
REMARK   61  A    between atoms: _136  and  _137
REMARK   62  A    between atoms: _140  and  _142
REMARK   63  A    between atoms: _142  and  _143
REMARK   64  A    between atoms: _145  and  _147
REMARK   65  A    between atoms: _147  and  _148
REMARK   66  A    between atoms: _150  and  _152
REMARK   67  A    between atoms: _152  and  _153
REMARK   68  A    between atoms: _152  and  _155
REMARK   69  A    between atoms: _155  and  _156
REMARK   70  A    between atoms: _159  and  _161
REMARK   71  A    between atoms: _161  and  _162
REMARK   72  A    between atoms: _164  and  _166
REMARK   73  A    between atoms: _166  and  _167
REMARK   74  A    between atoms: _169  and  _171
REMARK   75  A    between atoms: _171  and  _172
REMARK   76  A    between atoms: _171  and  _174
REMARK   77  A    between atoms: _174  and  _175
REMARK   78  A    between atoms: _181  and  _183
REMARK   79  A    between atoms: _183  and  _184
REMARK   80  A    between atoms: _183  and  _186
REMARK   81  A    between atoms: _186  and  _187
REMARK   82  A    between atoms: _190  and  _192
REMARK   83  A    between atoms: _192  and  _193
REMARK   84  A    between atoms: _192  and  _195
REMARK   85  A    between atoms: _198  and  _200
REMARK   86  A    between atoms: _200  and  _201
REMARK   87  A    between atoms: _200  and  _203
REMARK   88  A    between atoms: _203  and  _204
REMARK   89  A    between atoms: _208  and  _209
REMARK   90  A    between atoms: _214  and  _216
REMARK   91  A    between atoms: _216  and  _217
REMARK   92  A    between atoms: _216  and  _219
REMARK   93  A    between atoms: _219  and  _220
REMARK   94  A    between atoms: _224  and  _225
REMARK   95  A    between atoms: _230  and  _232
REMARK   96  A    between atoms: _232  and  _233
REMARK   97  A    between atoms: _232  and  _235
REMARK   98  A    between atoms: _238  and  _240
REMARK   99  A    between atoms: _240  and  _241
REMARK  100  A    between atoms: _240  and  _243
REMARK  101  A    between atoms: _243  and  _244
REMARK  102  A    between atoms: _249  and  _251
REMARK  103  A    between atoms: _251  and  _252
REMARK  104  A    between atoms: _251  and  _254
REMARK  105  A    between atoms: _257  and  _259
REMARK  106  A    between atoms: _259  and  _260
REMARK  107  A    between atoms: _259  and  _262
REMARK  108  A    between atoms: _262  and  _263
REMARK  109  A    between atoms: _266  and  _268
REMARK  110  A    between atoms: _268  and  _269
REMARK  111  A    between atoms: _271  and  _273
REMARK  112  A    between atoms: _273  and  _274
REMARK  113  A    between atoms: _273  and  _276
REMARK  114  A    between atoms: _276  and  _277
REMARK  115  A    between atoms: _277  and  _278
REMARK  116  A    between atoms: _278  and  _279
REMARK  117  A    between atoms: _288  and  _290
REMARK  118  A    between atoms: _290  and  _291
REMARK  119  A    between atoms: _290  and  _293
REMARK  120  A    between atoms: _293  and  _294
REMARK  121  A    between atoms: _299  and  _301
REMARK  122  A    between atoms: _301  and  _302
REMARK  123  A    between atoms: _301  and  _304
REMARK  124  A    between atoms: _304  and  _305
REMARK  125  A    between atoms: _305  and  _306
REMARK  126  A    between atoms: _306  and  _307
REMARK  127  A    between atoms: _316  and  _318
REMARK  128  A    between atoms: _318  and  _319
REMARK  129  A    between atoms: _318  and  _321
REMARK  130  A    between atoms: _321  and  _322
REMARK  131  A    between atoms: _325  and  _327
REMARK  132  A    between atoms: _327  and  _328
REMARK  133  A    between atoms: _327  and  _330
REMARK  134  A    between atoms: _330  and  _331
REMARK  135  A    between atoms: _334  and  _336
REMARK  136  A    between atoms: _336  and  _337
REMARK  137  A    between atoms: _336  and  _339
REMARK  138  A    between atoms: _339  and  _340
REMARK  139  A    between atoms: _343  and  _345
REMARK  140  A    between atoms: _345  and  _346
REMARK  141  A    between atoms: _345  and  _348
REMARK  142  A    between atoms: _348  and  _349
REMARK  143  A    between atoms: _352  and  _354
REMARK  144  A    between atoms: _354  and  _355
REMARK  145  A    between atoms: _357  and  _359
REMARK  146  A    between atoms: _359  and  _360
REMARK  147  A    between atoms: _363  and  _365
REMARK  148  A    between atoms: _365  and  _366
REMARK  149  A    between atoms: _365  and  _368
REMARK  150  A    between atoms: _368  and  _369
REMARK  151  A    between atoms: _372  and  _374
REMARK  152  A    between atoms: _374  and  _375
REMARK  153  A    between atoms: _374  and  _377
REMARK  154  A    between atoms: _377  and  _378
REMARK  155  A    between atoms: _381  and  _383
REMARK  156  A    between atoms: _383  and  _384
REMARK  157  A    between atoms: _383  and  _386
REMARK  158  A    between atoms: _386  and  _387
REMARK  159  A    between atoms: _390  and  _392
REMARK  160  A    between atoms: _392  and  _393
REMARK  161  A    between atoms: _392  and  _395
REMARK  162  A    between atoms: _398  and  _400
REMARK  163  A    between atoms: _400  and  _401
REMARK  164  A    between atoms: _400  and  _403
REMARK  165  A    between atoms: _403  and  _404
REMARK  166  A    between atoms: _407  and  _409
REMARK  167  A    between atoms: _409  and  _410
REMARK  168  A    between atoms: _409  and  _412
REMARK  169  A    between atoms: _412  and  _413
REMARK  170  A    between atoms: _413  and  _414
REMARK  171  A    between atoms: _414  and  _415
REMARK  172  A    between atoms: _415  and  _416
REMARK  173  A    between atoms: _420  and  _422
REMARK  174  A    between atoms: _422  and  _423
REMARK  175  A    between atoms: _422  and  _425
REMARK  176  A    between atoms: _425  and  _426
REMARK  177  A    between atoms: _426  and  _427
REMARK  178  A    between atoms: _429  and  _431
REMARK  179  A    between atoms: _431  and  _432
REMARK  180  A    between atoms: _431  and  _434
REMARK  181  A    between atoms: _434  and  _435
REMARK  182  A    between atoms: _438  and  _440
REMARK  183  A    between atoms: _440  and  _441
REMARK  184  A    between atoms: _443  and  _445
REMARK  185  A    between atoms: _445  and  _446
REMARK  186  A    between atoms: _448  and  _450
REMARK  187  A    between atoms: _450  and  _451
REMARK  188  A    between atoms: _450  and  _453
REMARK  189  A    between atoms: _453  and  _454
REMARK  190  A    between atoms: _457  and  _459
REMARK  191  A    between atoms: _459  and  _460
REMARK  192  A    between atoms: _462  and  _464
REMARK  193  A    between atoms: _464  and  _465
REMARK  194  A    between atoms: _467  and  _469
REMARK  195  A    between atoms: _469  and  _470
REMARK  196  A    between atoms: _469  and  _472
REMARK  197  A    between atoms: _472  and  _473
REMARK  198  A    between atoms: _476  and  _478
REMARK  199  A    between atoms: _478  and  _479
REMARK  200  A    between atoms: _478  and  _481
REMARK  201  A    between atoms: _484  and  _486
REMARK  202  A    between atoms: _486  and  _487
REMARK  203  A    between atoms: _486  and  _489
REMARK  204  A    between atoms: _489  and  _490
REMARK  205  A    between atoms: _493  and  _495
REMARK  206  A    between atoms: _495  and  _496
REMARK  207  A    between atoms: _495  and  _498
REMARK  208  A    between atoms: _498  and  _499
REMARK  209  A    between atoms: _503  and  _504
REMARK  210  A    between atoms: _509  and  _511
REMARK  211  A    between atoms: _511  and  _512
REMARK  212  A    between atoms: _511  and  _514
REMARK  213  A    between atoms: _517  and  _519
REMARK  214  A    between atoms: _519  and  _520
REMARK  215  A    between atoms: _519  and  _522
REMARK  216  A    between atoms: _522  and  _523
REMARK  217  A    between atoms: _528  and  _530
REMARK  218  A    between atoms: _530  and  _531
REMARK  219  A    between atoms: _530  and  _533
REMARK  220  A    between atoms: _536  and  _538
REMARK  221  A    between atoms: _538  and  _539
REMARK  222  A    between atoms: _538  and  _541
REMARK  223  A    between atoms: _541  and  _542
REMARK  224  A    between atoms: _545  and  _547
REMARK  225  A    between atoms: _547  and  _548
REMARK  226  A    between atoms: _550  and  _552
REMARK  227  A    between atoms: _552  and  _553
REMARK  228  A    between atoms: _552  and  _555
REMARK  229  A    between atoms: _555  and  _556
REMARK  230  A    between atoms: _556  and  _557
REMARK  231  A    between atoms: _557  and  _558
REMARK  232  A    between atoms: _567  and  _569
REMARK  233  A    between atoms: _569  and  _570
REMARK  234  A    between atoms: _569  and  _572
REMARK  235  A    between atoms: _572  and  _573
REMARK                            x       y       z     vdW  Elec       q    Type
REMARK                         _______ _______ _______ _____ _____    ______ ____
ROOT
ATOM      1  O   HOH     1       8.268  15.620  18.607  0.00  0.00    +0.000 OA
ENDROOT
TORSDOF 0
REMARK  Name = ../refined-set-2016/3nu9/3nu9_pocket.pdb
REMARK  235 active torsions:
REMARK  status: ('A' for Active; 'I' for Inactive)
REMARK    1  A    between atoms: _1  and  _3
REMARK    2  A    between atoms: _3  and  _4
REMARK    3  A    between atoms: _3  and  _6
REMARK    4  A    between atoms: _6  and  _7
REMARK    5  A    between atoms: _7  and  _8
REMARK    6  A    between atoms: _8  and  _9
REMARK    7  A    between atoms: _18  and  _20
REMARK    8  A    between atoms: _20  and  _21
REMARK    9  A    between atoms: _20  and  _23
REMARK   10  A    between atoms: _23  and  _24
REMARK   11  A    between atoms: _27  and  _29
REMARK   12  A    between atoms: _29  and  _30
REMARK   13  A    between atoms: _29  and  _32
REMARK   14  A    between atoms: _32  and  _33
REMARK   15  A    between atoms: _36  and  _38
REMARK   16  A    between atoms: _38  and  _39
REMARK   17  A    between atoms: _38  and  _41
REMARK   18  A    between atoms: _41  and  _42
REMARK   19  A    between atoms: _45  and  _47
REMARK   20  A    between atoms: _47  and  _48
REMARK   21  A    between atoms: _47  and  _50
REMARK   22  A    between atoms: _50  and  _51
REMARK   23  A    between atoms: _54  and  _56
REMARK   24  A    between atoms: _56  and  _57
REMARK   25  A    between atoms: _59  and  _61
REMARK   26  A    between atoms: _61  and  _62
REMARK   27  A    between atoms: _65  and  _67
REMARK   28  A    between atoms: _67  and  _68
REMARK   29  A    between atoms: _67  and  _70
REMARK   30  A    between atoms: _70  and  _71
REMARK   31  A    between atoms: _74  and  _76
REMARK   32  A    between atoms: _76  and  _77
REMARK   33  A    between atoms: _76  and  _79
REMARK   34  A    between atoms: _79  and  _80
REMARK   35  A    between atoms: _83  and  _85
REMARK   36  A    between atoms: _85  and  _86
REMARK   37  A    between atoms: _85  and  _88
REMARK   38  A    between atoms: _88  and  _89
REMARK   39  A    between atoms: _92  and  _94
REMARK   40  A    between atoms: _94  and  _95
REMARK   41  A    between atoms: _94  and  _97
REMARK   42  A    between atoms: _100  and  _102
REMARK   43  A    between atoms: _102  and  _103
REMARK   44  A    between atoms: _102  and  _105
REMARK   45  A    between atoms: _105  and  _106
REMARK   46  A    between atoms: _109  and  _111
REMARK   47  A    between atoms: _111  and  _112
REMARK   48  A    between atoms: _111  and  _114
REMARK   49  A    between atoms: _114  and  _115
REMARK   50  A    between atoms: _115  and  _116
REMARK   51  A    between atoms: _116  and  _117
REMARK   52  A    between atoms: _117  and  _118
REMARK   53  A    between atoms: _122  and  _124
REMARK   54  A    between atoms: _124  and  _125
REMARK   55  A    between atoms: _124  and  _127
REMARK   56  A    between atoms: _127  and  _128
REMARK   57  A    between atoms: _128  and  _129
REMARK   58  A    between atoms: _131  and  _133
REMARK   59  A    between atoms: _133  and  _134
REMARK   60  A    between atoms: _133  and  _136
REMARK   61  A    between atoms: _136  and  _137
REMARK   62  A    between atoms: _140  and  _142
REMARK   63  A    between atoms: _142  and  _143
REMARK   64  A    between atoms: _145  and  _147
REMARK   65  A    between atoms: _147  and  _148
REMARK   66  A    between atoms: _150  and  _152
REMARK   67  A    between atoms: _152  and  _153
REMARK   68  A    between atoms: _152  and  _155
REMARK   69  A    between atoms: _155  and  _156
REMARK   70  A    between atoms: _159  and  _161
REMARK   71  A    between atoms: _161  and  _162
REMARK   72  A    between atoms: _164  and  _166
REMARK   73  A    between atoms: _166  and  _167
REMARK   74  A    between atoms: _169  and  _171
REMARK   75  A    between atoms: _171  and  _172
REMARK   76  A    between atoms: _171  and  _174
REMARK   77  A    between atoms: _174  and  _175
REMARK   78  A    between atoms: _181  and  _183
REMARK   79  A    between atoms: _183  and  _184
REMARK   80  A    between atoms: _183  and  _186
REMARK   81  A    between atoms: _186  and  _187
REMARK   82  A    between atoms: _190  and  _192
REMARK   83  A    between atoms: _192  and  _193
REMARK   84  A    between atoms: _192  and  _195
REMARK   85  A    between atoms: _198  and  _200
REMARK   86  A    between atoms: _200  and  _201
REMARK   87  A    between atoms: _200  and  _203
REMARK   88  A    between atoms: _203  and  _204
REMARK   89  A    between atoms: _208  and  _209
REMARK   90  A    between atoms: _214  and  _216
REMARK   91  A    between atoms: _216  and  _217
REMARK   92  A    between atoms: _216  and  _219
REMARK   93  A    between atoms: _219  and  _220
REMARK   94  A    between atoms: _224  and  _225
REMARK   95  A    between atoms: _230  and  _232
REMARK   96  A    between atoms: _232  and  _233
REMARK   97  A    between atoms: _232  and  _235
REMARK   98  A    between atoms: _238  and  _240
REMARK   99  A    between atoms: _240  and  _241
REMARK  100  A    between atoms: _240  and  _243
REMARK  101  A    between atoms: _243  and  _244
REMARK  102  A    between atoms: _249  and  _251
REMARK  103  A    between atoms: _251  and  _252
REMARK  104  A    between atoms: _251  and  _254
REMARK  105  A    between atoms: _257  and  _259
REMARK  106  A    between atoms: _259  and  _260
REMARK  107  A    between atoms: _259  and  _262
REMARK  108  A    between atoms: _262  and  _263
REMARK  109  A    between atoms: _266  and  _268
REMARK  110  A    between atoms: _268  and  _269
REMARK  111  A    between atoms: _271  and  _273
REMARK  112  A    between atoms: _273  and  _274
REMARK  113  A    between atoms: _273  and  _276
REMARK  114  A    between atoms: _276  and  _277
REMARK  115  A    between atoms: _277  and  _278
REMARK  116  A    between atoms: _278  and  _279
REMARK  117  A    between atoms: _288  and  _290
REMARK  118  A    between atoms: _290  and  _291
REMARK  119  A    between atoms: _290  and  _293
REMARK  120  A    between atoms: _293  and  _294
REMARK  121  A    between atoms: _299  and  _301
REMARK  122  A    between atoms: _301  and  _302
REMARK  123  A    between atoms: _301  and  _304
REMARK  124  A    between atoms: _304  and  _305
REMARK  125  A    between atoms: _305  and  _306
REMARK  126  A    between atoms: _306  and  _307
REMARK  127  A    between atoms: _316  and  _318
REMARK  128  A    between atoms: _318  and  _319
REMARK  129  A    between atoms: _318  and  _321
REMARK  130  A    between atoms: _321  and  _322
REMARK  131  A    between atoms: _325  and  _327
REMARK  132  A    between atoms: _327  and  _328
REMARK  133  A    between atoms: _327  and  _330
REMARK  134  A    between atoms: _330  and  _331
REMARK  135  A    between atoms: _334  and  _336
REMARK  136  A    between atoms: _336  and  _337
REMARK  137  A    between atoms: _336  and  _339
REMARK  138  A    between atoms: _339  and  _340
REMARK  139  A    between atoms: _343  and  _345
REMARK  140  A    between atoms: _345  and  _346
REMARK  141  A    between atoms: _345  and  _348
REMARK  142  A    between atoms: _348  and  _349
REMARK  143  A    between atoms: _352  and  _354
REMARK  144  A    between atoms: _354  and  _355
REMARK  145  A    between atoms: _357  and  _359
REMARK  146  A    between atoms: _359  and  _360
REMARK  147  A    between atoms: _363  and  _365
REMARK  148  A    between atoms: _365  and  _366
REMARK  149  A    between atoms: _365  and  _368
REMARK  150  A    between atoms: _368  and  _369
REMARK  151  A    between atoms: _372  and  _374
REMARK  152  A    between atoms: _374  and  _375
REMARK  153  A    between atoms: _374  and  _377
REMARK  154  A    between atoms: _377  and  _378
REMARK  155  A    between atoms: _381  and  _383
REMARK  156  A    between atoms: _383  and  _384
REMARK  157  A    between atoms: _383  and  _386
REMARK  158  A    between atoms: _386  and  _387
REMARK  159  A    between atoms: _390  and  _392
REMARK  160  A    between atoms: _392  and  _393
REMARK  161  A    between atoms: _392  and  _395
REMARK  162  A    between atoms: _398  and  _400
REMARK  163  A    between atoms: _400  and  _401
REMARK  164  A    between atoms: _400  and  _403
REMARK  165  A    between atoms: _403  and  _404
REMARK  166  A    between atoms: _407  and  _409
REMARK  167  A    between atoms: _409  and  _410
REMARK  168  A    between atoms: _409  and  _412
REMARK  169  A    between atoms: _412  and  _413
REMARK  170  A    between atoms: _413  and  _414
REMARK  171  A    between atoms: _414  and  _415
REMARK  172  A    between atoms: _415  and  _416
REMARK  173  A    between atoms: _420  and  _422
REMARK  174  A    between atoms: _422  and  _423
REMARK  175  A    between atoms: _422  and  _425
REMARK  176  A    between atoms: _425  and  _426
REMARK  177  A    between atoms: _426  and  _427
REMARK  178  A    between atoms: _429  and  _431
REMARK  179  A    between atoms: _431  and  _432
REMARK  180  A    between atoms: _431  and  _434
REMARK  181  A    between atoms: _434  and  _435
REMARK  182  A    between atoms: _438  and  _440
REMARK  183  A    between atoms: _440  and  _441
REMARK  184  A    between atoms: _443  and  _445
REMARK  185  A    between atoms: _445  and  _446
REMARK  186  A    between atoms: _448  and  _450
REMARK  187  A    between atoms: _450  and  _451
REMARK  188  A    between atoms: _450  and  _453
REMARK  189  A    between atoms: _453  and  _454
REMARK  190  A    between atoms: _457  and  _459
REMARK  191  A    between atoms: _459  and  _460
REMARK  192  A    between atoms: _462  and  _464
REMARK  193  A    between atoms: _464  and  _465
REMARK  194  A    between atoms: _467  and  _469
REMARK  195  A    between atoms: _469  and  _470
REMARK  196  A    between atoms: _469  and  _472
REMARK  197  A    between atoms: _472  and  _473
REMARK  198  A    between atoms: _476  and  _478
REMARK  199  A    between atoms: _478  and  _479
REMARK  200  A    between atoms: _478  and  _481
REMARK  201  A    between atoms: _484  and  _486
REMARK  202  A    between atoms: _486  and  _487
REMARK  203  A    between atoms: _486  and  _489
REMARK  204  A    between atoms: _489  and  _490
REMARK  205  A    between atoms: _493  and  _495
REMARK  206  A    between atoms: _495  and  _496
REMARK  207  A    between atoms: _495  and  _498
REMARK  208  A    between atoms: _498  and  _499
REMARK  209  A    between atoms: _503  and  _504
REMARK  210  A    between atoms: _509  and  _511
REMARK  211  A    between atoms: _511  and  _512
REMARK  212  A    between atoms: _511  and  _514
REMARK  213  A    between atoms: _517  and  _519
REMARK  214  A    between atoms: _519  and  _520
REMARK  215  A    between atoms: _519  and  _522
REMARK  216  A    between atoms: _522  and  _523
REMARK  217  A    between atoms: _528  and  _530
REMARK  218  A    between atoms: _530  and  _531
REMARK  219  A    between atoms: _530  and  _533
REMARK  220  A    between atoms: _536  and  _538
REMARK  221  A    between atoms: _538  and  _539
REMARK  222  A    between atoms: _538  and  _541
REMARK  223  A    between atoms: _541  and  _542
REMARK  224  A    between atoms: _545  and  _547
REMARK  225  A    between atoms: _547  and  _548
REMARK  226  A    between atoms: _550  and  _552
REMARK  227  A    between atoms: _552  and  _553
REMARK  228  A    between atoms: _552  and  _555
REMARK  229  A    between atoms: _555  and  _556
REMARK  230  A    between atoms: _556  and  _557
REMARK  231  A    between atoms: _557  and  _558
REMARK  232  A    between atoms: _567  and  _569
REMARK  233  A    between atoms: _569  and  _570
REMARK  234  A    between atoms: _569  and  _572
REMARK  235  A    between atoms: _572  and  _573
REMARK                            x       y       z     vdW  Elec       q    Type
REMARK                         _______ _______ _______ _____ _____    ______ ____
ROOT
ATOM      1  O   HOH     1      10.762  12.632  20.981  0.00  0.00    +0.000 OA
ENDROOT
TORSDOF 0
REMARK  Name = ../refined-set-2016/3nu9/3nu9_pocket.pdb
REMARK  235 active torsions:
REMARK  status: ('A' for Active; 'I' for Inactive)
REMARK    1  A    between atoms: _1  and  _3
REMARK    2  A    between atoms: _3  and  _4
REMARK    3  A    between atoms: _3  and  _6
REMARK    4  A    between atoms: _6  and  _7
REMARK    5  A    between atoms: _7  and  _8
REMARK    6  A    between atoms: _8  and  _9
REMARK    7  A    between atoms: _18  and  _20
REMARK    8  A    between atoms: _20  and  _21
REMARK    9  A    between atoms: _20  and  _23
REMARK   10  A    between atoms: _23  and  _24
REMARK   11  A    between atoms: _27  and  _29
REMARK   12  A    between atoms: _29  and  _30
REMARK   13  A    between atoms: _29  and  _32
REMARK   14  A    between atoms: _32  and  _33
REMARK   15  A    between atoms: _36  and  _38
REMARK   16  A    between atoms: _38  and  _39
REMARK   17  A    between atoms: _38  and  _41
REMARK   18  A    between atoms: _41  and  _42
REMARK   19  A    between atoms: _45  and  _47
REMARK   20  A    between atoms: _47  and  _48
REMARK   21  A    between atoms: _47  and  _50
REMARK   22  A    between atoms: _50  and  _51
REMARK   23  A    between atoms: _54  and  _56
REMARK   24  A    between atoms: _56  and  _57
REMARK   25  A    between atoms: _59  and  _61
REMARK   26  A    between atoms: _61  and  _62
REMARK   27  A    between atoms: _65  and  _67
REMARK   28  A    between atoms: _67  and  _68
REMARK   29  A    between atoms: _67  and  _70
REMARK   30  A    between atoms: _70  and  _71
REMARK   31  A    between atoms: _74  and  _76
REMARK   32  A    between atoms: _76  and  _77
REMARK   33  A    between atoms: _76  and  _79
REMARK   34  A    between atoms: _79  and  _80
REMARK   35  A    between atoms: _83  and  _85
REMARK   36  A    between atoms: _85  and  _86
REMARK   37  A    between atoms: _85  and  _88
REMARK   38  A    between atoms: _88  and  _89
REMARK   39  A    between atoms: _92  and  _94
REMARK   40  A    between atoms: _94  and  _95
REMARK   41  A    between atoms: _94  and  _97
REMARK   42  A    between atoms: _100  and  _102
REMARK   43  A    between atoms: _102  and  _103
REMARK   44  A    between atoms: _102  and  _105
REMARK   45  A    between atoms: _105  and  _106
REMARK   46  A    between atoms: _109  and  _111
REMARK   47  A    between atoms: _111  and  _112
REMARK   48  A    between atoms: _111  and  _114
REMARK   49  A    between atoms: _114  and  _115
REMARK   50  A    between atoms: _115  and  _116
REMARK   51  A    between atoms: _116  and  _117
REMARK   52  A    between atoms: _117  and  _118
REMARK   53  A    between atoms: _122  and  _124
REMARK   54  A    between atoms: _124  and  _125
REMARK   55  A    between atoms: _124  and  _127
REMARK   56  A    between atoms: _127  and  _128
REMARK   57  A    between atoms: _128  and  _129
REMARK   58  A    between atoms: _131  and  _133
REMARK   59  A    between atoms: _133  and  _134
REMARK   60  A    between atoms: _133  and  _136
REMARK   61  A    between atoms: _136  and  _137
REMARK   62  A    between atoms: _140  and  _142
REMARK   63  A    between atoms: _142  and  _143
REMARK   64  A    between atoms: _145  and  _147
REMARK   65  A    between atoms: _147  and  _148
REMARK   66  A    between atoms: _150  and  _152
REMARK   67  A    between atoms: _152  and  _153
REMARK   68  A    between atoms: _152  and  _155
REMARK   69  A    between atoms: _155  and  _156
REMARK   70  A    between atoms: _159  and  _161
REMARK   71  A    between atoms: _161  and  _162
REMARK   72  A    between atoms: _164  and  _166
REMARK   73  A    between atoms: _166  and  _167
REMARK   74  A    between atoms: _169  and  _171
REMARK   75  A    between atoms: _171  and  _172
REMARK   76  A    between atoms: _171  and  _174
REMARK   77  A    between atoms: _174  and  _175
REMARK   78  A    between atoms: _181  and  _183
REMARK   79  A    between atoms: _183  and  _184
REMARK   80  A    between atoms: _183  and  _186
REMARK   81  A    between atoms: _186  and  _187
REMARK   82  A    between atoms: _190  and  _192
REMARK   83  A    between atoms: _192  and  _193
REMARK   84  A    between atoms: _192  and  _195
REMARK   85  A    between atoms: _198  and  _200
REMARK   86  A    between atoms: _200  and  _201
REMARK   87  A    between atoms: _200  and  _203
REMARK   88  A    between atoms: _203  and  _204
REMARK   89  A    between atoms: _208  and  _209
REMARK   90  A    between atoms: _214  and  _216
REMARK   91  A    between atoms: _216  and  _217
REMARK   92  A    between atoms: _216  and  _219
REMARK   93  A    between atoms: _219  and  _220
REMARK   94  A    between atoms: _224  and  _225
REMARK   95  A    between atoms: _230  and  _232
REMARK   96  A    between atoms: _232  and  _233
REMARK   97  A    between atoms: _232  and  _235
REMARK   98  A    between atoms: _238  and  _240
REMARK   99  A    between atoms: _240  and  _241
REMARK  100  A    between atoms: _240  and  _243
REMARK  101  A    between atoms: _243  and  _244
REMARK  102  A    between atoms: _249  and  _251
REMARK  103  A    between atoms: _251  and  _252
REMARK  104  A    between atoms: _251  and  _254
REMARK  105  A    between atoms: _257  and  _259
REMARK  106  A    between atoms: _259  and  _260
REMARK  107  A    between atoms: _259  and  _262
REMARK  108  A    between atoms: _262  and  _263
REMARK  109  A    between atoms: _266  and  _268
REMARK  110  A    between atoms: _268  and  _269
REMARK  111  A    between atoms: _271  and  _273
REMARK  112  A    between atoms: _273  and  _274
REMARK  113  A    between atoms: _273  and  _276
REMARK  114  A    between atoms: _276  and  _277
REMARK  115  A    between atoms: _277  and  _278
REMARK  116  A    between atoms: _278  and  _279
REMARK  117  A    between atoms: _288  and  _290
REMARK  118  A    between atoms: _290  and  _291
REMARK  119  A    between atoms: _290  and  _293
REMARK  120  A    between atoms: _293  and  _294
REMARK  121  A    between atoms: _299  and  _301
REMARK  122  A    between atoms: _301  and  _302
REMARK  123  A    between atoms: _301  and  _304
REMARK  124  A    between atoms: _304  and  _305
REMARK  125  A    between atoms: _305  and  _306
REMARK  126  A    between atoms: _306  and  _307
REMARK  127  A    between atoms: _316  and  _318
REMARK  128  A    between atoms: _318  and  _319
REMARK  129  A    between atoms: _318  and  _321
REMARK  130  A    between atoms: _321  and  _322
REMARK  131  A    between atoms: _325  and  _327
REMARK  132  A    between atoms: _327  and  _328
REMARK  133  A    between atoms: _327  and  _330
REMARK  134  A    between atoms: _330  and  _331
REMARK  135  A    between atoms: _334  and  _336
REMARK  136  A    between atoms: _336  and  _337
REMARK  137  A    between atoms: _336  and  _339
REMARK  138  A    between atoms: _339  and  _340
REMARK  139  A    between atoms: _343  and  _345
REMARK  140  A    between atoms: _345  and  _346
REMARK  141  A    between atoms: _345  and  _348
REMARK  142  A    between atoms: _348  and  _349
REMARK  143  A    between atoms: _352  and  _354
REMARK  144  A    between atoms: _354  and  _355
REMARK  145  A    between atoms: _357  and  _359
REMARK  146  A    between atoms: _359  and  _360
REMARK  147  A    between atoms: _363  and  _365
REMARK  148  A    between atoms: _365  and  _366
REMARK  149  A    between atoms: _365  and  _368
REMARK  150  A    between atoms: _368  and  _369
REMARK  151  A    between atoms: _372  and  _374
REMARK  152  A    between atoms: _374  and  _375
REMARK  153  A    between atoms: _374  and  _377
REMARK  154  A    between atoms: _377  and  _378
REMARK  155  A    between atoms: _381  and  _383
REMARK  156  A    between atoms: _383  and  _384
REMARK  157  A    between atoms: _383  and  _386
REMARK  158  A    between atoms: _386  and  _387
REMARK  159  A    between atoms: _390  and  _392
REMARK  160  A    between atoms: _392  and  _393
REMARK  161  A    between atoms: _392  and  _395
REMARK  162  A    between atoms: _398  and  _400
REMARK  163  A    between atoms: _400  and  _401
REMARK  164  A    between atoms: _400  and  _403
REMARK  165  A    between atoms: _403  and  _404
REMARK  166  A    between atoms: _407  and  _409
REMARK  167  A    between atoms: _409  and  _410
REMARK  168  A    between atoms: _409  and  _412
REMARK  169  A    between atoms: _412  and  _413
REMARK  170  A    between atoms: _413  and  _414
REMARK  171  A    between atoms: _414  and  _415
REMARK  172  A    between atoms: _415  and  _416
REMARK  173  A    between atoms: _420  and  _422
REMARK  174  A    between atoms: _422  and  _423
REMARK  175  A    between atoms: _422  and  _425
REMARK  176  A    between atoms: _425  and  _426
REMARK  177  A    between atoms: _426  and  _427
REMARK  178  A    between atoms: _429  and  _431
REMARK  179  A    between atoms: _431  and  _432
REMARK  180  A    between atoms: _431  and  _434
REMARK  181  A    between atoms: _434  and  _435
REMARK  182  A    between atoms: _438  and  _440
REMARK  183  A    between atoms: _440  and  _441
REMARK  184  A    between atoms: _443  and  _445
REMARK  185  A    between atoms: _445  and  _446
REMARK  186  A    between atoms: _448  and  _450
REMARK  187  A    between atoms: _450  and  _451
REMARK  188  A    between atoms: _450  and  _453
REMARK  189  A    between atoms: _453  and  _454
REMARK  190  A    between atoms: _457  and  _459
REMARK  191  A    between atoms: _459  and  _460
REMARK  192  A    between atoms: _462  and  _464
REMARK  193  A    between atoms: _464  and  _465
REMARK  194  A    between atoms: _467  and  _469
REMARK  195  A    between atoms: _469  and  _470
REMARK  196  A    between atoms: _469  and  _472
REMARK  197  A    between atoms: _472  and  _473
REMARK  198  A    between atoms: _476  and  _478
REMARK  199  A    between atoms: _478  and  _479
REMARK  200  A    between atoms: _478  and  _481
REMARK  201  A    between atoms: _484  and  _486
REMARK  202  A    between atoms: _486  and  _487
REMARK  203  A    between atoms: _486  and  _489
REMARK  204  A    between atoms: _489  and  _490
REMARK  205  A    between atoms: _493  and  _495
REMARK  206  A    between atoms: _495  and  _496
REMARK  207  A    between atoms: _495  and  _498
REMARK  208  A    between atoms: _498  and  _499
REMARK  209  A    between atoms: _503  and  _504
REMARK  210  A    between atoms: _509  and  _511
REMARK  211  A    between atoms: _511  and  _512
REMARK  212  A    between atoms: _511  and  _514
REMARK  213  A    between atoms: _517  and  _519
REMARK  214  A    between atoms: _519  and  _520
REMARK  215  A    between atoms: _519  and  _522
REMARK  216  A    between atoms: _522  and  _523
REMARK  217  A    between atoms: _528  and  _530
REMARK  218  A    between atoms: _530  and  _531
REMARK  219  A    between atoms: _530  and  _533
REMARK  220  A    between atoms: _536  and  _538
REMARK  221  A    between atoms: _538  and  _539
REMARK  222  A    between atoms: _538  and  _541
REMARK  223  A    between atoms: _541  and  _542
REMARK  224  A    between atoms: _545  and  _547
REMARK  225  A    between atoms: _547  and  _548
REMARK  226  A    between atoms: _550  and  _552
REMARK  227  A    between atoms: _552  and  _553
REMARK  228  A    between atoms: _552  and  _555
REMARK  229  A    between atoms: _555  and  _556
REMARK  230  A    between atoms: _556  and  _557
REMARK  231  A    between atoms: _557  and  _558
REMARK  232  A    between atoms: _567  and  _569
REMARK  233  A    between atoms: _569  and  _570
REMARK  234  A    between atoms: _569  and  _572
REMARK  235  A    between atoms: _572  and  _573
REMARK                            x       y       z     vdW  Elec       q    Type
REMARK                         _______ _______ _______ _____ _____    ______ ____
ROOT
ATOM      1  O   HOH     1       3.478  17.443  16.041  0.00  0.00    +0.000 OA
ENDROOT
TORSDOF 0
REMARK  Name = ../refined-set-2016/3nu9/3nu9_pocket.pdb
REMARK  235 active torsions:
REMARK  status: ('A' for Active; 'I' for Inactive)
REMARK    1  A    between atoms: _1  and  _3
REMARK    2  A    between atoms: _3  and  _4
REMARK    3  A    between atoms: _3  and  _6
REMARK    4  A    between atoms: _6  and  _7
REMARK    5  A    between atoms: _7  and  _8
REMARK    6  A    between atoms: _8  and  _9
REMARK    7  A    between atoms: _18  and  _20
REMARK    8  A    between atoms: _20  and  _21
REMARK    9  A    between atoms: _20  and  _23
REMARK   10  A    between atoms: _23  and  _24
REMARK   11  A    between atoms: _27  and  _29
REMARK   12  A    between atoms: _29  and  _30
REMARK   13  A    between atoms: _29  and  _32
REMARK   14  A    between atoms: _32  and  _33
REMARK   15  A    between atoms: _36  and  _38
REMARK   16  A    between atoms: _38  and  _39
REMARK   17  A    between atoms: _38  and  _41
REMARK   18  A    between atoms: _41  and  _42
REMARK   19  A    between atoms: _45  and  _47
REMARK   20  A    between atoms: _47  and  _48
REMARK   21  A    between atoms: _47  and  _50
REMARK   22  A    between atoms: _50  and  _51
REMARK   23  A    between atoms: _54  and  _56
REMARK   24  A    between atoms: _56  and  _57
REMARK   25  A    between atoms: _59  and  _61
REMARK   26  A    between atoms: _61  and  _62
REMARK   27  A    between atoms: _65  and  _67
REMARK   28  A    between atoms: _67  and  _68
REMARK   29  A    between atoms: _67  and  _70
REMARK   30  A    between atoms: _70  and  _71
REMARK   31  A    between atoms: _74  and  _76
REMARK   32  A    between atoms: _76  and  _77
REMARK   33  A    between atoms: _76  and  _79
REMARK   34  A    between atoms: _79  and  _80
REMARK   35  A    between atoms: _83  and  _85
REMARK   36  A    between atoms: _85  and  _86
REMARK   37  A    between atoms: _85  and  _88
REMARK   38  A    between atoms: _88  and  _89
REMARK   39  A    between atoms: _92  and  _94
REMARK   40  A    between atoms: _94  and  _95
REMARK   41  A    between atoms: _94  and  _97
REMARK   42  A    between atoms: _100  and  _102
REMARK   43  A    between atoms: _102  and  _103
REMARK   44  A    between atoms: _102  and  _105
REMARK   45  A    between atoms: _105  and  _106
REMARK   46  A    between atoms: _109  and  _111
REMARK   47  A    between atoms: _111  and  _112
REMARK   48  A    between atoms: _111  and  _114
REMARK   49  A    between atoms: _114  and  _115
REMARK   50  A    between atoms: _115  and  _116
REMARK   51  A    between atoms: _116  and  _117
REMARK   52  A    between atoms: _117  and  _118
REMARK   53  A    between atoms: _122  and  _124
REMARK   54  A    between atoms: _124  and  _125
REMARK   55  A    between atoms: _124  and  _127
REMARK   56  A    between atoms: _127  and  _128
REMARK   57  A    between atoms: _128  and  _129
REMARK   58  A    between atoms: _131  and  _133
REMARK   59  A    between atoms: _133  and  _134
REMARK   60  A    between atoms: _133  and  _136
REMARK   61  A    between atoms: _136  and  _137
REMARK   62  A    between atoms: _140  and  _142
REMARK   63  A    between atoms: _142  and  _143
REMARK   64  A    between atoms: _145  and  _147
REMARK   65  A    between atoms: _147  and  _148
REMARK   66  A    between atoms: _150  and  _152
REMARK   67  A    between atoms: _152  and  _153
REMARK   68  A    between atoms: _152  and  _155
REMARK   69  A    between atoms: _155  and  _156
REMARK   70  A    between atoms: _159  and  _161
REMARK   71  A    between atoms: _161  and  _162
REMARK   72  A    between atoms: _164  and  _166
REMARK   73  A    between atoms: _166  and  _167
REMARK   74  A    between atoms: _169  and  _171
REMARK   75  A    between atoms: _171  and  _172
REMARK   76  A    between atoms: _171  and  _174
REMARK   77  A    between atoms: _174  and  _175
REMARK   78  A    between atoms: _181  and  _183
REMARK   79  A    between atoms: _183  and  _184
REMARK   80  A    between atoms: _183  and  _186
REMARK   81  A    between atoms: _186  and  _187
REMARK   82  A    between atoms: _190  and  _192
REMARK   83  A    between atoms: _192  and  _193
REMARK   84  A    between atoms: _192  and  _195
REMARK   85  A    between atoms: _198  and  _200
REMARK   86  A    between atoms: _200  and  _201
REMARK   87  A    between atoms: _200  and  _203
REMARK   88  A    between atoms: _203  and  _204
REMARK   89  A    between atoms: _208  and  _209
REMARK   90  A    between atoms: _214  and  _216
REMARK   91  A    between atoms: _216  and  _217
REMARK   92  A    between atoms: _216  and  _219
REMARK   93  A    between atoms: _219  and  _220
REMARK   94  A    between atoms: _224  and  _225
REMARK   95  A    between atoms: _230  and  _232
REMARK   96  A    between atoms: _232  and  _233
REMARK   97  A    between atoms: _232  and  _235
REMARK   98  A    between atoms: _238  and  _240
REMARK   99  A    between atoms: _240  and  _241
REMARK  100  A    between atoms: _240  and  _243
REMARK  101  A    between atoms: _243  and  _244
REMARK  102  A    between atoms: _249  and  _251
REMARK  103  A    between atoms: _251  and  _252
REMARK  104  A    between atoms: _251  and  _254
REMARK  105  A    between atoms: _257  and  _259
REMARK  106  A    between atoms: _259  and  _260
REMARK  107  A    between atoms: _259  and  _262
REMARK  108  A    between atoms: _262  and  _263
REMARK  109  A    between atoms: _266  and  _268
REMARK  110  A    between atoms: _268  and  _269
REMARK  111  A    between atoms: _271  and  _273
REMARK  112  A    between atoms: _273  and  _274
REMARK  113  A    between atoms: _273  and  _276
REMARK  114  A    between atoms: _276  and  _277
REMARK  115  A    between atoms: _277  and  _278
REMARK  116  A    between atoms: _278  and  _279
REMARK  117  A    between atoms: _288  and  _290
REMARK  118  A    between atoms: _290  and  _291
REMARK  119  A    between atoms: _290  and  _293
REMARK  120  A    between atoms: _293  and  _294
REMARK  121  A    between atoms: _299  and  _301
REMARK  122  A    between atoms: _301  and  _302
REMARK  123  A    between atoms: _301  and  _304
REMARK  124  A    between atoms: _304  and  _305
REMARK  125  A    between atoms: _305  and  _306
REMARK  126  A    between atoms: _306  and  _307
REMARK  127  A    between atoms: _316  and  _318
REMARK  128  A    between atoms: _318  and  _319
REMARK  129  A    between atoms: _318  and  _321
REMARK  130  A    between atoms: _321  and  _322
REMARK  131  A    between atoms: _325  and  _327
REMARK  132  A    between atoms: _327  and  _328
REMARK  133  A    between atoms: _327  and  _330
REMARK  134  A    between atoms: _330  and  _331
REMARK  135  A    between atoms: _334  and  _336
REMARK  136  A    between atoms: _336  and  _337
REMARK  137  A    between atoms: _336  and  _339
REMARK  138  A    between atoms: _339  and  _340
REMARK  139  A    between atoms: _343  and  _345
REMARK  140  A    between atoms: _345  and  _346
REMARK  141  A    between atoms: _345  and  _348
REMARK  142  A    between atoms: _348  and  _349
REMARK  143  A    between atoms: _352  and  _354
REMARK  144  A    between atoms: _354  and  _355
REMARK  145  A    between atoms: _357  and  _359
REMARK  146  A    between atoms: _359  and  _360
REMARK  147  A    between atoms: _363  and  _365
REMARK  148  A    between atoms: _365  and  _366
REMARK  149  A    between atoms: _365  and  _368
REMARK  150  A    between atoms: _368  and  _369
REMARK  151  A    between atoms: _372  and  _374
REMARK  152  A    between atoms: _374  and  _375
REMARK  153  A    between atoms: _374  and  _377
REMARK  154  A    between atoms: _377  and  _378
REMARK  155  A    between atoms: _381  and  _383
REMARK  156  A    between atoms: _383  and  _384
REMARK  157  A    between atoms: _383  and  _386
REMARK  158  A    between atoms: _386  and  _387
REMARK  159  A    between atoms: _390  and  _392
REMARK  160  A    between atoms: _392  and  _393
REMARK  161  A    between atoms: _392  and  _395
REMARK  162  A    between atoms: _398  and  _400
REMARK  163  A    between atoms: _400  and  _401
REMARK  164  A    between atoms: _400  and  _403
REMARK  165  A    between atoms: _403  and  _404
REMARK  166  A    between atoms: _407  and  _409
REMARK  167  A    between atoms: _409  and  _410
REMARK  168  A    between atoms: _409  and  _412
REMARK  169  A    between atoms: _412  and  _413
REMARK  170  A    between atoms: _413  and  _414
REMARK  171  A    between atoms: _414  and  _415
REMARK  172  A    between atoms: _415  and  _416
REMARK  173  A    between atoms: _420  and  _422
REMARK  174  A    between atoms: _422  and  _423
REMARK  175  A    between atoms: _422  and  _425
REMARK  176  A    between atoms: _425  and  _426
REMARK  177  A    between atoms: _426  and  _427
REMARK  178  A    between atoms: _429  and  _431
REMARK  179  A    between atoms: _431  and  _432
REMARK  180  A    between atoms: _431  and  _434
REMARK  181  A    between atoms: _434  and  _435
REMARK  182  A    between atoms: _438  and  _440
REMARK  183  A    between atoms: _440  and  _441
REMARK  184  A    between atoms: _443  and  _445
REMARK  185  A    between atoms: _445  and  _446
REMARK  186  A    between atoms: _448  and  _450
REMARK  187  A    between atoms: _450  and  _451
REMARK  188  A    between atoms: _450  and  _453
REMARK  189  A    between atoms: _453  and  _454
REMARK  190  A    between atoms: _457  and  _459
REMARK  191  A    between atoms: _459  and  _460
REMARK  192  A    between atoms: _462  and  _464
REMARK  193  A    between atoms: _464  and  _465
REMARK  194  A    between atoms: _467  and  _469
REMARK  195  A    between atoms: _469  and  _470
REMARK  196  A    between atoms: _469  and  _472
REMARK  197  A    between atoms: _472  and  _473
REMARK  198  A    between atoms: _476  and  _478
REMARK  199  A    between atoms: _478  and  _479
REMARK  200  A    between atoms: _478  and  _481
REMARK  201  A    between atoms: _484  and  _486
REMARK  202  A    between atoms: _486  and  _487
REMARK  203  A    between atoms: _486  and  _489
REMARK  204  A    between atoms: _489  and  _490
REMARK  205  A    between atoms: _493  and  _495
REMARK  206  A    between atoms: _495  and  _496
REMARK  207  A    between atoms: _495  and  _498
REMARK  208  A    between atoms: _498  and  _499
REMARK  209  A    between atoms: _503  and  _504
REMARK  210  A    between atoms: _509  and  _511
REMARK  211  A    between atoms: _511  and  _512
REMARK  212  A    between atoms: _511  and  _514
REMARK  213  A    between atoms: _517  and  _519
REMARK  214  A    between atoms: _519  and  _520
REMARK  215  A    between atoms: _519  and  _522
REMARK  216  A    between atoms: _522  and  _523
REMARK  217  A    between atoms: _528  and  _530
REMARK  218  A    between atoms: _530  and  _531
REMARK  219  A    between atoms: _530  and  _533
REMARK  220  A    between atoms: _536  and  _538
REMARK  221  A    between atoms: _538  and  _539
REMARK  222  A    between atoms: _538  and  _541
REMARK  223  A    between atoms: _541  and  _542
REMARK  224  A    between atoms: _545  and  _547
REMARK  225  A    between atoms: _547  and  _548
REMARK  226  A    between atoms: _550  and  _552
REMARK  227  A    between atoms: _552  and  _553
REMARK  228  A    between atoms: _552  and  _555
REMARK  229  A    between atoms: _555  and  _556
REMARK  230  A    between atoms: _556  and  _557
REMARK  231  A    between atoms: _557  and  _558
REMARK  232  A    between atoms: _567  and  _569
REMARK  233  A    between atoms: _569  and  _570
REMARK  234  A    between atoms: _569  and  _572
REMARK  235  A    between atoms: _572  and  _573
REMARK                            x       y       z     vdW  Elec       q    Type
REMARK                         _______ _______ _______ _____ _____    ______ ____
ROOT
ATOM      1  O   HOH     1       6.734   8.091  16.797  0.00  0.00    +0.000 OA
ENDROOT
TORSDOF 0
REMARK  Name = ../refined-set-2016/3nu9/3nu9_pocket.pdb
REMARK  235 active torsions:
REMARK  status: ('A' for Active; 'I' for Inactive)
REMARK    1  A    between atoms: _1  and  _3
REMARK    2  A    between atoms: _3  and  _4
REMARK    3  A    between atoms: _3  and  _6
REMARK    4  A    between atoms: _6  and  _7
REMARK    5  A    between atoms: _7  and  _8
REMARK    6  A    between atoms: _8  and  _9
REMARK    7  A    between atoms: _18  and  _20
REMARK    8  A    between atoms: _20  and  _21
REMARK    9  A    between atoms: _20  and  _23
REMARK   10  A    between atoms: _23  and  _24
REMARK   11  A    between atoms: _27  and  _29
REMARK   12  A    between atoms: _29  and  _30
REMARK   13  A    between atoms: _29  and  _32
REMARK   14  A    between atoms: _32  and  _33
REMARK   15  A    between atoms: _36  and  _38
REMARK   16  A    between atoms: _38  and  _39
REMARK   17  A    between atoms: _38  and  _41
REMARK   18  A    between atoms: _41  and  _42
REMARK   19  A    between atoms: _45  and  _47
REMARK   20  A    between atoms: _47  and  _48
REMARK   21  A    between atoms: _47  and  _50
REMARK   22  A    between atoms: _50  and  _51
REMARK   23  A    between atoms: _54  and  _56
REMARK   24  A    between atoms: _56  and  _57
REMARK   25  A    between atoms: _59  and  _61
REMARK   26  A    between atoms: _61  and  _62
REMARK   27  A    between atoms: _65  and  _67
REMARK   28  A    between atoms: _67  and  _68
REMARK   29  A    between atoms: _67  and  _70
REMARK   30  A    between atoms: _70  and  _71
REMARK   31  A    between atoms: _74  and  _76
REMARK   32  A    between atoms: _76  and  _77
REMARK   33  A    between atoms: _76  and  _79
REMARK   34  A    between atoms: _79  and  _80
REMARK   35  A    between atoms: _83  and  _85
REMARK   36  A    between atoms: _85  and  _86
REMARK   37  A    between atoms: _85  and  _88
REMARK   38  A    between atoms: _88  and  _89
REMARK   39  A    between atoms: _92  and  _94
REMARK   40  A    between atoms: _94  and  _95
REMARK   41  A    between atoms: _94  and  _97
REMARK   42  A    between atoms: _100  and  _102
REMARK   43  A    between atoms: _102  and  _103
REMARK   44  A    between atoms: _102  and  _105
REMARK   45  A    between atoms: _105  and  _106
REMARK   46  A    between atoms: _109  and  _111
REMARK   47  A    between atoms: _111  and  _112
REMARK   48  A    between atoms: _111  and  _114
REMARK   49  A    between atoms: _114  and  _115
REMARK   50  A    between atoms: _115  and  _116
REMARK   51  A    between atoms: _116  and  _117
REMARK   52  A    between atoms: _117  and  _118
REMARK   53  A    between atoms: _122  and  _124
REMARK   54  A    between atoms: _124  and  _125
REMARK   55  A    between atoms: _124  and  _127
REMARK   56  A    between atoms: _127  and  _128
REMARK   57  A    between atoms: _128  and  _129
REMARK   58  A    between atoms: _131  and  _133
REMARK   59  A    between atoms: _133  and  _134
REMARK   60  A    between atoms: _133  and  _136
REMARK   61  A    between atoms: _136  and  _137
REMARK   62  A    between atoms: _140  and  _142
REMARK   63  A    between atoms: _142  and  _143
REMARK   64  A    between atoms: _145  and  _147
REMARK   65  A    between atoms: _147  and  _148
REMARK   66  A    between atoms: _150  and  _152
REMARK   67  A    between atoms: _152  and  _153
REMARK   68  A    between atoms: _152  and  _155
REMARK   69  A    between atoms: _155  and  _156
REMARK   70  A    between atoms: _159  and  _161
REMARK   71  A    between atoms: _161  and  _162
REMARK   72  A    between atoms: _164  and  _166
REMARK   73  A    between atoms: _166  and  _167
REMARK   74  A    between atoms: _169  and  _171
REMARK   75  A    between atoms: _171  and  _172
REMARK   76  A    between atoms: _171  and  _174
REMARK   77  A    between atoms: _174  and  _175
REMARK   78  A    between atoms: _181  and  _183
REMARK   79  A    between atoms: _183  and  _184
REMARK   80  A    between atoms: _183  and  _186
REMARK   81  A    between atoms: _186  and  _187
REMARK   82  A    between atoms: _190  and  _192
REMARK   83  A    between atoms: _192  and  _193
REMARK   84  A    between atoms: _192  and  _195
REMARK   85  A    between atoms: _198  and  _200
REMARK   86  A    between atoms: _200  and  _201
REMARK   87  A    between atoms: _200  and  _203
REMARK   88  A    between atoms: _203  and  _204
REMARK   89  A    between atoms: _208  and  _209
REMARK   90  A    between atoms: _214  and  _216
REMARK   91  A    between atoms: _216  and  _217
REMARK   92  A    between atoms: _216  and  _219
REMARK   93  A    between atoms: _219  and  _220
REMARK   94  A    between atoms: _224  and  _225
REMARK   95  A    between atoms: _230  and  _232
REMARK   96  A    between atoms: _232  and  _233
REMARK   97  A    between atoms: _232  and  _235
REMARK   98  A    between atoms: _238  and  _240
REMARK   99  A    between atoms: _240  and  _241
REMARK  100  A    between atoms: _240  and  _243
REMARK  101  A    between atoms: _243  and  _244
REMARK  102  A    between atoms: _249  and  _251
REMARK  103  A    between atoms: _251  and  _252
REMARK  104  A    between atoms: _251  and  _254
REMARK  105  A    between atoms: _257  and  _259
REMARK  106  A    between atoms: _259  and  _260
REMARK  107  A    between atoms: _259  and  _262
REMARK  108  A    between atoms: _262  and  _263
REMARK  109  A    between atoms: _266  and  _268
REMARK  110  A    between atoms: _268  and  _269
REMARK  111  A    between atoms: _271  and  _273
REMARK  112  A    between atoms: _273  and  _274
REMARK  113  A    between atoms: _273  and  _276
REMARK  114  A    between atoms: _276  and  _277
REMARK  115  A    between atoms: _277  and  _278
REMARK  116  A    between atoms: _278  and  _279
REMARK  117  A    between atoms: _288  and  _290
REMARK  118  A    between atoms: _290  and  _291
REMARK  119  A    between atoms: _290  and  _293
REMARK  120  A    between atoms: _293  and  _294
REMARK  121  A    between atoms: _299  and  _301
REMARK  122  A    between atoms: _301  and  _302
REMARK  123  A    between atoms: _301  and  _304
REMARK  124  A    between atoms: _304  and  _305
REMARK  125  A    between atoms: _305  and  _306
REMARK  126  A    between atoms: _306  and  _307
REMARK  127  A    between atoms: _316  and  _318
REMARK  128  A    between atoms: _318  and  _319
REMARK  129  A    between atoms: _318  and  _321
REMARK  130  A    between atoms: _321  and  _322
REMARK  131  A    between atoms: _325  and  _327
REMARK  132  A    between atoms: _327  and  _328
REMARK  133  A    between atoms: _327  and  _330
REMARK  134  A    between atoms: _330  and  _331
REMARK  135  A    between atoms: _334  and  _336
REMARK  136  A    between atoms: _336  and  _337
REMARK  137  A    between atoms: _336  and  _339
REMARK  138  A    between atoms: _339  and  _340
REMARK  139  A    between atoms: _343  and  _345
REMARK  140  A    between atoms: _345  and  _346
REMARK  141  A    between atoms: _345  and  _348
REMARK  142  A    between atoms: _348  and  _349
REMARK  143  A    between atoms: _352  and  _354
REMARK  144  A    between atoms: _354  and  _355
REMARK  145  A    between atoms: _357  and  _359
REMARK  146  A    between atoms: _359  and  _360
REMARK  147  A    between atoms: _363  and  _365
REMARK  148  A    between atoms: _365  and  _366
REMARK  149  A    between atoms: _365  and  _368
REMARK  150  A    between atoms: _368  and  _369
REMARK  151  A    between atoms: _372  and  _374
REMARK  152  A    between atoms: _374  and  _375
REMARK  153  A    between atoms: _374  and  _377
REMARK  154  A    between atoms: _377  and  _378
REMARK  155  A    between atoms: _381  and  _383
REMARK  156  A    between atoms: _383  and  _384
REMARK  157  A    between atoms: _383  and  _386
REMARK  158  A    between atoms: _386  and  _387
REMARK  159  A    between atoms: _390  and  _392
REMARK  160  A    between atoms: _392  and  _393
REMARK  161  A    between atoms: _392  and  _395
REMARK  162  A    between atoms: _398  and  _400
REMARK  163  A    between atoms: _400  and  _401
REMARK  164  A    between atoms: _400  and  _403
REMARK  165  A    between atoms: _403  and  _404
REMARK  166  A    between atoms: _407  and  _409
REMARK  167  A    between atoms: _409  and  _410
REMARK  168  A    between atoms: _409  and  _412
REMARK  169  A    between atoms: _412  and  _413
REMARK  170  A    between atoms: _413  and  _414
REMARK  171  A    between atoms: _414  and  _415
REMARK  172  A    between atoms: _415  and  _416
REMARK  173  A    between atoms: _420  and  _422
REMARK  174  A    between atoms: _422  and  _423
REMARK  175  A    between atoms: _422  and  _425
REMARK  176  A    between atoms: _425  and  _426
REMARK  177  A    between atoms: _426  and  _427
REMARK  178  A    between atoms: _429  and  _431
REMARK  179  A    between atoms: _431  and  _432
REMARK  180  A    between atoms: _431  and  _434
REMARK  181  A    between atoms: _434  and  _435
REMARK  182  A    between atoms: _438  and  _440
REMARK  183  A    between atoms: _440  and  _441
REMARK  184  A    between atoms: _443  and  _445
REMARK  185  A    between atoms: _445  and  _446
REMARK  186  A    between atoms: _448  and  _450
REMARK  187  A    between atoms: _450  and  _451
REMARK  188  A    between atoms: _450  and  _453
REMARK  189  A    between atoms: _453  and  _454
REMARK  190  A    between atoms: _457  and  _459
REMARK  191  A    between atoms: _459  and  _460
REMARK  192  A    between atoms: _462  and  _464
REMARK  193  A    between atoms: _464  and  _465
REMARK  194  A    between atoms: _467  and  _469
REMARK  195  A    between atoms: _469  and  _470
REMARK  196  A    between atoms: _469  and  _472
REMARK  197  A    between atoms: _472  and  _473
REMARK  198  A    between atoms: _476  and  _478
REMARK  199  A    between atoms: _478  and  _479
REMARK  200  A    between atoms: _478  and  _481
REMARK  201  A    between atoms: _484  and  _486
REMARK  202  A    between atoms: _486  and  _487
REMARK  203  A    between atoms: _486  and  _489
REMARK  204  A    between atoms: _489  and  _490
REMARK  205  A    between atoms: _493  and  _495
REMARK  206  A    between atoms: _495  and  _496
REMARK  207  A    between atoms: _495  and  _498
REMARK  208  A    between atoms: _498  and  _499
REMARK  209  A    between atoms: _503  and  _504
REMARK  210  A    between atoms: _509  and  _511
REMARK  211  A    between atoms: _511  and  _512
REMARK  212  A    between atoms: _511  and  _514
REMARK  213  A    between atoms: _517  and  _519
REMARK  214  A    between atoms: _519  and  _520
REMARK  215  A    between atoms: _519  and  _522
REMARK  216  A    between atoms: _522  and  _523
REMARK  217  A    between atoms: _528  and  _530
REMARK  218  A    between atoms: _530  and  _531
REMARK  219  A    between atoms: _530  and  _533
REMARK  220  A    between atoms: _536  and  _538
REMARK  221  A    between atoms: _538  and  _539
REMARK  222  A    between atoms: _538  and  _541
REMARK  223  A    between atoms: _541  and  _542
REMARK  224  A    between atoms: _545  and  _547
REMARK  225  A    between atoms: _547  and  _548
REMARK  226  A    between atoms: _550  and  _552
REMARK  227  A    between atoms: _552  and  _553
REMARK  228  A    between atoms: _552  and  _555
REMARK  229  A    between atoms: _555  and  _556
REMARK  230  A    between atoms: _556  and  _557
REMARK  231  A    between atoms: _557  and  _558
REMARK  232  A    between atoms: _567  and  _569
REMARK  233  A    between atoms: _569  and  _570
REMARK  234  A    between atoms: _569  and  _572
REMARK  235  A    between atoms: _572  and  _573
REMARK                            x       y       z     vdW  Elec       q    Type
REMARK                         _______ _______ _______ _____ _____    ______ ____
ROOT
ATOM      1  O   HOH     1       0.691  15.092  13.547  0.00  0.00    +0.000 OA
ENDROOT
TORSDOF 0
REMARK  Name = ../refined-set-2016/3nu9/3nu9_pocket.pdb
REMARK  235 active torsions:
REMARK  status: ('A' for Active; 'I' for Inactive)
REMARK    1  A    between atoms: _1  and  _3
REMARK    2  A    between atoms: _3  and  _4
REMARK    3  A    between atoms: _3  and  _6
REMARK    4  A    between atoms: _6  and  _7
REMARK    5  A    between atoms: _7  and  _8
REMARK    6  A    between atoms: _8  and  _9
REMARK    7  A    between atoms: _18  and  _20
REMARK    8  A    between atoms: _20  and  _21
REMARK    9  A    between atoms: _20  and  _23
REMARK   10  A    between atoms: _23  and  _24
REMARK   11  A    between atoms: _27  and  _29
REMARK   12  A    between atoms: _29  and  _30
REMARK   13  A    between atoms: _29  and  _32
REMARK   14  A    between atoms: _32  and  _33
REMARK   15  A    between atoms: _36  and  _38
REMARK   16  A    between atoms: _38  and  _39
REMARK   17  A    between atoms: _38  and  _41
REMARK   18  A    between atoms: _41  and  _42
REMARK   19  A    between atoms: _45  and  _47
REMARK   20  A    between atoms: _47  and  _48
REMARK   21  A    between atoms: _47  and  _50
REMARK   22  A    between atoms: _50  and  _51
REMARK   23  A    between atoms: _54  and  _56
REMARK   24  A    between atoms: _56  and  _57
REMARK   25  A    between atoms: _59  and  _61
REMARK   26  A    between atoms: _61  and  _62
REMARK   27  A    between atoms: _65  and  _67
REMARK   28  A    between atoms: _67  and  _68
REMARK   29  A    between atoms: _67  and  _70
REMARK   30  A    between atoms: _70  and  _71
REMARK   31  A    between atoms: _74  and  _76
REMARK   32  A    between atoms: _76  and  _77
REMARK   33  A    between atoms: _76  and  _79
REMARK   34  A    between atoms: _79  and  _80
REMARK   35  A    between atoms: _83  and  _85
REMARK   36  A    between atoms: _85  and  _86
REMARK   37  A    between atoms: _85  and  _88
REMARK   38  A    between atoms: _88  and  _89
REMARK   39  A    between atoms: _92  and  _94
REMARK   40  A    between atoms: _94  and  _95
REMARK   41  A    between atoms: _94  and  _97
REMARK   42  A    between atoms: _100  and  _102
REMARK   43  A    between atoms: _102  and  _103
REMARK   44  A    between atoms: _102  and  _105
REMARK   45  A    between atoms: _105  and  _106
REMARK   46  A    between atoms: _109  and  _111
REMARK   47  A    between atoms: _111  and  _112
REMARK   48  A    between atoms: _111  and  _114
REMARK   49  A    between atoms: _114  and  _115
REMARK   50  A    between atoms: _115  and  _116
REMARK   51  A    between atoms: _116  and  _117
REMARK   52  A    between atoms: _117  and  _118
REMARK   53  A    between atoms: _122  and  _124
REMARK   54  A    between atoms: _124  and  _125
REMARK   55  A    between atoms: _124  and  _127
REMARK   56  A    between atoms: _127  and  _128
REMARK   57  A    between atoms: _128  and  _129
REMARK   58  A    between atoms: _131  and  _133
REMARK   59  A    between atoms: _133  and  _134
REMARK   60  A    between atoms: _133  and  _136
REMARK   61  A    between atoms: _136  and  _137
REMARK   62  A    between atoms: _140  and  _142
REMARK   63  A    between atoms: _142  and  _143
REMARK   64  A    between atoms: _145  and  _147
REMARK   65  A    between atoms: _147  and  _148
REMARK   66  A    between atoms: _150  and  _152
REMARK   67  A    between atoms: _152  and  _153
REMARK   68  A    between atoms: _152  and  _155
REMARK   69  A    between atoms: _155  and  _156
REMARK   70  A    between atoms: _159  and  _161
REMARK   71  A    between atoms: _161  and  _162
REMARK   72  A    between atoms: _164  and  _166
REMARK   73  A    between atoms: _166  and  _167
REMARK   74  A    between atoms: _169  and  _171
REMARK   75  A    between atoms: _171  and  _172
REMARK   76  A    between atoms: _171  and  _174
REMARK   77  A    between atoms: _174  and  _175
REMARK   78  A    between atoms: _181  and  _183
REMARK   79  A    between atoms: _183  and  _184
REMARK   80  A    between atoms: _183  and  _186
REMARK   81  A    between atoms: _186  and  _187
REMARK   82  A    between atoms: _190  and  _192
REMARK   83  A    between atoms: _192  and  _193
REMARK   84  A    between atoms: _192  and  _195
REMARK   85  A    between atoms: _198  and  _200
REMARK   86  A    between atoms: _200  and  _201
REMARK   87  A    between atoms: _200  and  _203
REMARK   88  A    between atoms: _203  and  _204
REMARK   89  A    between atoms: _208  and  _209
REMARK   90  A    between atoms: _214  and  _216
REMARK   91  A    between atoms: _216  and  _217
REMARK   92  A    between atoms: _216  and  _219
REMARK   93  A    between atoms: _219  and  _220
REMARK   94  A    between atoms: _224  and  _225
REMARK   95  A    between atoms: _230  and  _232
REMARK   96  A    between atoms: _232  and  _233
REMARK   97  A    between atoms: _232  and  _235
REMARK   98  A    between atoms: _238  and  _240
REMARK   99  A    between atoms: _240  and  _241
REMARK  100  A    between atoms: _240  and  _243
REMARK  101  A    between atoms: _243  and  _244
REMARK  102  A    between atoms: _249  and  _251
REMARK  103  A    between atoms: _251  and  _252
REMARK  104  A    between atoms: _251  and  _254
REMARK  105  A    between atoms: _257  and  _259
REMARK  106  A    between atoms: _259  and  _260
REMARK  107  A    between atoms: _259  and  _262
REMARK  108  A    between atoms: _262  and  _263
REMARK  109  A    between atoms: _266  and  _268
REMARK  110  A    between atoms: _268  and  _269
REMARK  111  A    between atoms: _271  and  _273
REMARK  112  A    between atoms: _273  and  _274
REMARK  113  A    between atoms: _273  and  _276
REMARK  114  A    between atoms: _276  and  _277
REMARK  115  A    between atoms: _277  and  _278
REMARK  116  A    between atoms: _278  and  _279
REMARK  117  A    between atoms: _288  and  _290
REMARK  118  A    between atoms: _290  and  _291
REMARK  119  A    between atoms: _290  and  _293
REMARK  120  A    between atoms: _293  and  _294
REMARK  121  A    between atoms: _299  and  _301
REMARK  122  A    between atoms: _301  and  _302
REMARK  123  A    between atoms: _301  and  _304
REMARK  124  A    between atoms: _304  and  _305
REMARK  125  A    between atoms: _305  and  _306
REMARK  126  A    between atoms: _306  and  _307
REMARK  127  A    between atoms: _316  and  _318
REMARK  128  A    between atoms: _318  and  _319
REMARK  129  A    between atoms: _318  and  _321
REMARK  130  A    between atoms: _321  and  _322
REMARK  131  A    between atoms: _325  and  _327
REMARK  132  A    between atoms: _327  and  _328
REMARK  133  A    between atoms: _327  and  _330
REMARK  134  A    between atoms: _330  and  _331
REMARK  135  A    between atoms: _334  and  _336
REMARK  136  A    between atoms: _336  and  _337
REMARK  137  A    between atoms: _336  and  _339
REMARK  138  A    between atoms: _339  and  _340
REMARK  139  A    between atoms: _343  and  _345
REMARK  140  A    between atoms: _345  and  _346
REMARK  141  A    between atoms: _345  and  _348
REMARK  142  A    between atoms: _348  and  _349
REMARK  143  A    between atoms: _352  and  _354
REMARK  144  A    between atoms: _354  and  _355
REMARK  145  A    between atoms: _357  and  _359
REMARK  146  A    between atoms: _359  and  _360
REMARK  147  A    between atoms: _363  and  _365
REMARK  148  A    between atoms: _365  and  _366
REMARK  149  A    between atoms: _365  and  _368
REMARK  150  A    between atoms: _368  and  _369
REMARK  151  A    between atoms: _372  and  _374
REMARK  152  A    between atoms: _374  and  _375
REMARK  153  A    between atoms: _374  and  _377
REMARK  154  A    between atoms: _377  and  _378
REMARK  155  A    between atoms: _381  and  _383
REMARK  156  A    between atoms: _383  and  _384
REMARK  157  A    between atoms: _383  and  _386
REMARK  158  A    between atoms: _386  and  _387
REMARK  159  A    between atoms: _390  and  _392
REMARK  160  A    between atoms: _392  and  _393
REMARK  161  A    between atoms: _392  and  _395
REMARK  162  A    between atoms: _398  and  _400
REMARK  163  A    between atoms: _400  and  _401
REMARK  164  A    between atoms: _400  and  _403
REMARK  165  A    between atoms: _403  and  _404
REMARK  166  A    between atoms: _407  and  _409
REMARK  167  A    between atoms: _409  and  _410
REMARK  168  A    between atoms: _409  and  _412
REMARK  169  A    between atoms: _412  and  _413
REMARK  170  A    between atoms: _413  and  _414
REMARK  171  A    between atoms: _414  and  _415
REMARK  172  A    between atoms: _415  and  _416
REMARK  173  A    between atoms: _420  and  _422
REMARK  174  A    between atoms: _422  and  _423
REMARK  175  A    between atoms: _422  and  _425
REMARK  176  A    between atoms: _425  and  _426
REMARK  177  A    between atoms: _426  and  _427
REMARK  178  A    between atoms: _429  and  _431
REMARK  179  A    between atoms: _431  and  _432
REMARK  180  A    between atoms: _431  and  _434
REMARK  181  A    between atoms: _434  and  _435
REMARK  182  A    between atoms: _438  and  _440
REMARK  183  A    between atoms: _440  and  _441
REMARK  184  A    between atoms: _443  and  _445
REMARK  185  A    between atoms: _445  and  _446
REMARK  186  A    between atoms: _448  and  _450
REMARK  187  A    between atoms: _450  and  _451
REMARK  188  A    between atoms: _450  and  _453
REMARK  189  A    between atoms: _453  and  _454
REMARK  190  A    between atoms: _457  and  _459
REMARK  191  A    between atoms: _459  and  _460
REMARK  192  A    between atoms: _462  and  _464
REMARK  193  A    between atoms: _464  and  _465
REMARK  194  A    between atoms: _467  and  _469
REMARK  195  A    between atoms: _469  and  _470
REMARK  196  A    between atoms: _469  and  _472
REMARK  197  A    between atoms: _472  and  _473
REMARK  198  A    between atoms: _476  and  _478
REMARK  199  A    between atoms: _478  and  _479
REMARK  200  A    between atoms: _478  and  _481
REMARK  201  A    between atoms: _484  and  _486
REMARK  202  A    between atoms: _486  and  _487
REMARK  203  A    between atoms: _486  and  _489
REMARK  204  A    between atoms: _489  and  _490
REMARK  205  A    between atoms: _493  and  _495
REMARK  206  A    between atoms: _495  and  _496
REMARK  207  A    between atoms: _495  and  _498
REMARK  208  A    between atoms: _498  and  _499
REMARK  209  A    between atoms: _503  and  _504
REMARK  210  A    between atoms: _509  and  _511
REMARK  211  A    between atoms: _511  and  _512
REMARK  212  A    between atoms: _511  and  _514
REMARK  213  A    between atoms: _517  and  _519
REMARK  214  A    between atoms: _519  and  _520
REMARK  215  A    between atoms: _519  and  _522
REMARK  216  A    between atoms: _522  and  _523
REMARK  217  A    between atoms: _528  and  _530
REMARK  218  A    between atoms: _530  and  _531
REMARK  219  A    between atoms: _530  and  _533
REMARK  220  A    between atoms: _536  and  _538
REMARK  221  A    between atoms: _538  and  _539
REMARK  222  A    between atoms: _538  and  _541
REMARK  223  A    between atoms: _541  and  _542
REMARK  224  A    between atoms: _545  and  _547
REMARK  225  A    between atoms: _547  and  _548
REMARK  226  A    between atoms: _550  and  _552
REMARK  227  A    between atoms: _552  and  _553
REMARK  228  A    between atoms: _552  and  _555
REMARK  229  A    between atoms: _555  and  _556
REMARK  230  A    between atoms: _556  and  _557
REMARK  231  A    between atoms: _557  and  _558
REMARK  232  A    between atoms: _567  and  _569
REMARK  233  A    between atoms: _569  and  _570
REMARK  234  A    between atoms: _569  and  _572
REMARK  235  A    between atoms: _572  and  _573
REMARK                            x       y       z     vdW  Elec       q    Type
REMARK                         _______ _______ _______ _____ _____    ______ ____
ROOT
ATOM      1  O   HOH     1      22.630  21.077  10.507  0.00  0.00    +0.000 OA
ENDROOT
TORSDOF 0
REMARK  Name = ../refined-set-2016/3nu9/3nu9_pocket.pdb
REMARK  235 active torsions:
REMARK  status: ('A' for Active; 'I' for Inactive)
REMARK    1  A    between atoms: _1  and  _3
REMARK    2  A    between atoms: _3  and  _4
REMARK    3  A    between atoms: _3  and  _6
REMARK    4  A    between atoms: _6  and  _7
REMARK    5  A    between atoms: _7  and  _8
REMARK    6  A    between atoms: _8  and  _9
REMARK    7  A    between atoms: _18  and  _20
REMARK    8  A    between atoms: _20  and  _21
REMARK    9  A    between atoms: _20  and  _23
REMARK   10  A    between atoms: _23  and  _24
REMARK   11  A    between atoms: _27  and  _29
REMARK   12  A    between atoms: _29  and  _30
REMARK   13  A    between atoms: _29  and  _32
REMARK   14  A    between atoms: _32  and  _33
REMARK   15  A    between atoms: _36  and  _38
REMARK   16  A    between atoms: _38  and  _39
REMARK   17  A    between atoms: _38  and  _41
REMARK   18  A    between atoms: _41  and  _42
REMARK   19  A    between atoms: _45  and  _47
REMARK   20  A    between atoms: _47  and  _48
REMARK   21  A    between atoms: _47  and  _50
REMARK   22  A    between atoms: _50  and  _51
REMARK   23  A    between atoms: _54  and  _56
REMARK   24  A    between atoms: _56  and  _57
REMARK   25  A    between atoms: _59  and  _61
REMARK   26  A    between atoms: _61  and  _62
REMARK   27  A    between atoms: _65  and  _67
REMARK   28  A    between atoms: _67  and  _68
REMARK   29  A    between atoms: _67  and  _70
REMARK   30  A    between atoms: _70  and  _71
REMARK   31  A    between atoms: _74  and  _76
REMARK   32  A    between atoms: _76  and  _77
REMARK   33  A    between atoms: _76  and  _79
REMARK   34  A    between atoms: _79  and  _80
REMARK   35  A    between atoms: _83  and  _85
REMARK   36  A    between atoms: _85  and  _86
REMARK   37  A    between atoms: _85  and  _88
REMARK   38  A    between atoms: _88  and  _89
REMARK   39  A    between atoms: _92  and  _94
REMARK   40  A    between atoms: _94  and  _95
REMARK   41  A    between atoms: _94  and  _97
REMARK   42  A    between atoms: _100  and  _102
REMARK   43  A    between atoms: _102  and  _103
REMARK   44  A    between atoms: _102  and  _105
REMARK   45  A    between atoms: _105  and  _106
REMARK   46  A    between atoms: _109  and  _111
REMARK   47  A    between atoms: _111  and  _112
REMARK   48  A    between atoms: _111  and  _114
REMARK   49  A    between atoms: _114  and  _115
REMARK   50  A    between atoms: _115  and  _116
REMARK   51  A    between atoms: _116  and  _117
REMARK   52  A    between atoms: _117  and  _118
REMARK   53  A    between atoms: _122  and  _124
REMARK   54  A    between atoms: _124  and  _125
REMARK   55  A    between atoms: _124  and  _127
REMARK   56  A    between atoms: _127  and  _128
REMARK   57  A    between atoms: _128  and  _129
REMARK   58  A    between atoms: _131  and  _133
REMARK   59  A    between atoms: _133  and  _134
REMARK   60  A    between atoms: _133  and  _136
REMARK   61  A    between atoms: _136  and  _137
REMARK   62  A    between atoms: _140  and  _142
REMARK   63  A    between atoms: _142  and  _143
REMARK   64  A    between atoms: _145  and  _147
REMARK   65  A    between atoms: _147  and  _148
REMARK   66  A    between atoms: _150  and  _152
REMARK   67  A    between atoms: _152  and  _153
REMARK   68  A    between atoms: _152  and  _155
REMARK   69  A    between atoms: _155  and  _156
REMARK   70  A    between atoms: _159  and  _161
REMARK   71  A    between atoms: _161  and  _162
REMARK   72  A    between atoms: _164  and  _166
REMARK   73  A    between atoms: _166  and  _167
REMARK   74  A    between atoms: _169  and  _171
REMARK   75  A    between atoms: _171  and  _172
REMARK   76  A    between atoms: _171  and  _174
REMARK   77  A    between atoms: _174  and  _175
REMARK   78  A    between atoms: _181  and  _183
REMARK   79  A    between atoms: _183  and  _184
REMARK   80  A    between atoms: _183  and  _186
REMARK   81  A    between atoms: _186  and  _187
REMARK   82  A    between atoms: _190  and  _192
REMARK   83  A    between atoms: _192  and  _193
REMARK   84  A    between atoms: _192  and  _195
REMARK   85  A    between atoms: _198  and  _200
REMARK   86  A    between atoms: _200  and  _201
REMARK   87  A    between atoms: _200  and  _203
REMARK   88  A    between atoms: _203  and  _204
REMARK   89  A    between atoms: _208  and  _209
REMARK   90  A    between atoms: _214  and  _216
REMARK   91  A    between atoms: _216  and  _217
REMARK   92  A    between atoms: _216  and  _219
REMARK   93  A    between atoms: _219  and  _220
REMARK   94  A    between atoms: _224  and  _225
REMARK   95  A    between atoms: _230  and  _232
REMARK   96  A    between atoms: _232  and  _233
REMARK   97  A    between atoms: _232  and  _235
REMARK   98  A    between atoms: _238  and  _240
REMARK   99  A    between atoms: _240  and  _241
REMARK  100  A    between atoms: _240  and  _243
REMARK  101  A    between atoms: _243  and  _244
REMARK  102  A    between atoms: _249  and  _251
REMARK  103  A    between atoms: _251  and  _252
REMARK  104  A    between atoms: _251  and  _254
REMARK  105  A    between atoms: _257  and  _259
REMARK  106  A    between atoms: _259  and  _260
REMARK  107  A    between atoms: _259  and  _262
REMARK  108  A    between atoms: _262  and  _263
REMARK  109  A    between atoms: _266  and  _268
REMARK  110  A    between atoms: _268  and  _269
REMARK  111  A    between atoms: _271  and  _273
REMARK  112  A    between atoms: _273  and  _274
REMARK  113  A    between atoms: _273  and  _276
REMARK  114  A    between atoms: _276  and  _277
REMARK  115  A    between atoms: _277  and  _278
REMARK  116  A    between atoms: _278  and  _279
REMARK  117  A    between atoms: _288  and  _290
REMARK  118  A    between atoms: _290  and  _291
REMARK  119  A    between atoms: _290  and  _293
REMARK  120  A    between atoms: _293  and  _294
REMARK  121  A    between atoms: _299  and  _301
REMARK  122  A    between atoms: _301  and  _302
REMARK  123  A    between atoms: _301  and  _304
REMARK  124  A    between atoms: _304  and  _305
REMARK  125  A    between atoms: _305  and  _306
REMARK  126  A    between atoms: _306  and  _307
REMARK  127  A    between atoms: _316  and  _318
REMARK  128  A    between atoms: _318  and  _319
REMARK  129  A    between atoms: _318  and  _321
REMARK  130  A    between atoms: _321  and  _322
REMARK  131  A    between atoms: _325  and  _327
REMARK  132  A    between atoms: _327  and  _328
REMARK  133  A    between atoms: _327  and  _330
REMARK  134  A    between atoms: _330  and  _331
REMARK  135  A    between atoms: _334  and  _336
REMARK  136  A    between atoms: _336  and  _337
REMARK  137  A    between atoms: _336  and  _339
REMARK  138  A    between atoms: _339  and  _340
REMARK  139  A    between atoms: _343  and  _345
REMARK  140  A    between atoms: _345  and  _346
REMARK  141  A    between atoms: _345  and  _348
REMARK  142  A    between atoms: _348  and  _349
REMARK  143  A    between atoms: _352  and  _354
REMARK  144  A    between atoms: _354  and  _355
REMARK  145  A    between atoms: _357  and  _359
REMARK  146  A    between atoms: _359  and  _360
REMARK  147  A    between atoms: _363  and  _365
REMARK  148  A    between atoms: _365  and  _366
REMARK  149  A    between atoms: _365  and  _368
REMARK  150  A    between atoms: _368  and  _369
REMARK  151  A    between atoms: _372  and  _374
REMARK  152  A    between atoms: _374  and  _375
REMARK  153  A    between atoms: _374  and  _377
REMARK  154  A    between atoms: _377  and  _378
REMARK  155  A    between atoms: _381  and  _383
REMARK  156  A    between atoms: _383  and  _384
REMARK  157  A    between atoms: _383  and  _386
REMARK  158  A    between atoms: _386  and  _387
REMARK  159  A    between atoms: _390  and  _392
REMARK  160  A    between atoms: _392  and  _393
REMARK  161  A    between atoms: _392  and  _395
REMARK  162  A    between atoms: _398  and  _400
REMARK  163  A    between atoms: _400  and  _401
REMARK  164  A    between atoms: _400  and  _403
REMARK  165  A    between atoms: _403  and  _404
REMARK  166  A    between atoms: _407  and  _409
REMARK  167  A    between atoms: _409  and  _410
REMARK  168  A    between atoms: _409  and  _412
REMARK  169  A    between atoms: _412  and  _413
REMARK  170  A    between atoms: _413  and  _414
REMARK  171  A    between atoms: _414  and  _415
REMARK  172  A    between atoms: _415  and  _416
REMARK  173  A    between atoms: _420  and  _422
REMARK  174  A    between atoms: _422  and  _423
REMARK  175  A    between atoms: _422  and  _425
REMARK  176  A    between atoms: _425  and  _426
REMARK  177  A    between atoms: _426  and  _427
REMARK  178  A    between atoms: _429  and  _431
REMARK  179  A    between atoms: _431  and  _432
REMARK  180  A    between atoms: _431  and  _434
REMARK  181  A    between atoms: _434  and  _435
REMARK  182  A    between atoms: _438  and  _440
REMARK  183  A    between atoms: _440  and  _441
REMARK  184  A    between atoms: _443  and  _445
REMARK  185  A    between atoms: _445  and  _446
REMARK  186  A    between atoms: _448  and  _450
REMARK  187  A    between atoms: _450  and  _451
REMARK  188  A    between atoms: _450  and  _453
REMARK  189  A    between atoms: _453  and  _454
REMARK  190  A    between atoms: _457  and  _459
REMARK  191  A    between atoms: _459  and  _460
REMARK  192  A    between atoms: _462  and  _464
REMARK  193  A    between atoms: _464  and  _465
REMARK  194  A    between atoms: _467  and  _469
REMARK  195  A    between atoms: _469  and  _470
REMARK  196  A    between atoms: _469  and  _472
REMARK  197  A    between atoms: _472  and  _473
REMARK  198  A    between atoms: _476  and  _478
REMARK  199  A    between atoms: _478  and  _479
REMARK  200  A    between atoms: _478  and  _481
REMARK  201  A    between atoms: _484  and  _486
REMARK  202  A    between atoms: _486  and  _487
REMARK  203  A    between atoms: _486  and  _489
REMARK  204  A    between atoms: _489  and  _490
REMARK  205  A    between atoms: _493  and  _495
REMARK  206  A    between atoms: _495  and  _496
REMARK  207  A    between atoms: _495  and  _498
REMARK  208  A    between atoms: _498  and  _499
REMARK  209  A    between atoms: _503  and  _504
REMARK  210  A    between atoms: _509  and  _511
REMARK  211  A    between atoms: _511  and  _512
REMARK  212  A    between atoms: _511  and  _514
REMARK  213  A    between atoms: _517  and  _519
REMARK  214  A    between atoms: _519  and  _520
REMARK  215  A    between atoms: _519  and  _522
REMARK  216  A    between atoms: _522  and  _523
REMARK  217  A    between atoms: _528  and  _530
REMARK  218  A    between atoms: _530  and  _531
REMARK  219  A    between atoms: _530  and  _533
REMARK  220  A    between atoms: _536  and  _538
REMARK  221  A    between atoms: _538  and  _539
REMARK  222  A    between atoms: _538  and  _541
REMARK  223  A    between atoms: _541  and  _542
REMARK  224  A    between atoms: _545  and  _547
REMARK  225  A    between atoms: _547  and  _548
REMARK  226  A    between atoms: _550  and  _552
REMARK  227  A    between atoms: _552  and  _553
REMARK  228  A    between atoms: _552  and  _555
REMARK  229  A    between atoms: _555  and  _556
REMARK  230  A    between atoms: _556  and  _557
REMARK  231  A    between atoms: _557  and  _558
REMARK  232  A    between atoms: _567  and  _569
REMARK  233  A    between atoms: _569  and  _570
REMARK  234  A    between atoms: _569  and  _572
REMARK  235  A    between atoms: _572  and  _573
REMARK                            x       y       z     vdW  Elec       q    Type
REMARK                         _______ _______ _______ _____ _____    ______ ____
ROOT
ATOM      1  O   HOH     1       8.693  14.494  20.832  0.00  0.00    +0.000 OA
ENDROOT
TORSDOF 0
REMARK  Name = ../refined-set-2016/3nu9/3nu9_pocket.pdb
REMARK  235 active torsions:
REMARK  status: ('A' for Active; 'I' for Inactive)
REMARK    1  A    between atoms: _1  and  _3
REMARK    2  A    between atoms: _3  and  _4
REMARK    3  A    between atoms: _3  and  _6
REMARK    4  A    between atoms: _6  and  _7
REMARK    5  A    between atoms: _7  and  _8
REMARK    6  A    between atoms: _8  and  _9
REMARK    7  A    between atoms: _18  and  _20
REMARK    8  A    between atoms: _20  and  _21
REMARK    9  A    between atoms: _20  and  _23
REMARK   10  A    between atoms: _23  and  _24
REMARK   11  A    between atoms: _27  and  _29
REMARK   12  A    between atoms: _29  and  _30
REMARK   13  A    between atoms: _29  and  _32
REMARK   14  A    between atoms: _32  and  _33
REMARK   15  A    between atoms: _36  and  _38
REMARK   16  A    between atoms: _38  and  _39
REMARK   17  A    between atoms: _38  and  _41
REMARK   18  A    between atoms: _41  and  _42
REMARK   19  A    between atoms: _45  and  _47
REMARK   20  A    between atoms: _47  and  _48
REMARK   21  A    between atoms: _47  and  _50
REMARK   22  A    between atoms: _50  and  _51
REMARK   23  A    between atoms: _54  and  _56
REMARK   24  A    between atoms: _56  and  _57
REMARK   25  A    between atoms: _59  and  _61
REMARK   26  A    between atoms: _61  and  _62
REMARK   27  A    between atoms: _65  and  _67
REMARK   28  A    between atoms: _67  and  _68
REMARK   29  A    between atoms: _67  and  _70
REMARK   30  A    between atoms: _70  and  _71
REMARK   31  A    between atoms: _74  and  _76
REMARK   32  A    between atoms: _76  and  _77
REMARK   33  A    between atoms: _76  and  _79
REMARK   34  A    between atoms: _79  and  _80
REMARK   35  A    between atoms: _83  and  _85
REMARK   36  A    between atoms: _85  and  _86
REMARK   37  A    between atoms: _85  and  _88
REMARK   38  A    between atoms: _88  and  _89
REMARK   39  A    between atoms: _92  and  _94
REMARK   40  A    between atoms: _94  and  _95
REMARK   41  A    between atoms: _94  and  _97
REMARK   42  A    between atoms: _100  and  _102
REMARK   43  A    between atoms: _102  and  _103
REMARK   44  A    between atoms: _102  and  _105
REMARK   45  A    between atoms: _105  and  _106
REMARK   46  A    between atoms: _109  and  _111
REMARK   47  A    between atoms: _111  and  _112
REMARK   48  A    between atoms: _111  and  _114
REMARK   49  A    between atoms: _114  and  _115
REMARK   50  A    between atoms: _115  and  _116
REMARK   51  A    between atoms: _116  and  _117
REMARK   52  A    between atoms: _117  and  _118
REMARK   53  A    between atoms: _122  and  _124
REMARK   54  A    between atoms: _124  and  _125
REMARK   55  A    between atoms: _124  and  _127
REMARK   56  A    between atoms: _127  and  _128
REMARK   57  A    between atoms: _128  and  _129
REMARK   58  A    between atoms: _131  and  _133
REMARK   59  A    between atoms: _133  and  _134
REMARK   60  A    between atoms: _133  and  _136
REMARK   61  A    between atoms: _136  and  _137
REMARK   62  A    between atoms: _140  and  _142
REMARK   63  A    between atoms: _142  and  _143
REMARK   64  A    between atoms: _145  and  _147
REMARK   65  A    between atoms: _147  and  _148
REMARK   66  A    between atoms: _150  and  _152
REMARK   67  A    between atoms: _152  and  _153
REMARK   68  A    between atoms: _152  and  _155
REMARK   69  A    between atoms: _155  and  _156
REMARK   70  A    between atoms: _159  and  _161
REMARK   71  A    between atoms: _161  and  _162
REMARK   72  A    between atoms: _164  and  _166
REMARK   73  A    between atoms: _166  and  _167
REMARK   74  A    between atoms: _169  and  _171
REMARK   75  A    between atoms: _171  and  _172
REMARK   76  A    between atoms: _171  and  _174
REMARK   77  A    between atoms: _174  and  _175
REMARK   78  A    between atoms: _181  and  _183
REMARK   79  A    between atoms: _183  and  _184
REMARK   80  A    between atoms: _183  and  _186
REMARK   81  A    between atoms: _186  and  _187
REMARK   82  A    between atoms: _190  and  _192
REMARK   83  A    between atoms: _192  and  _193
REMARK   84  A    between atoms: _192  and  _195
REMARK   85  A    between atoms: _198  and  _200
REMARK   86  A    between atoms: _200  and  _201
REMARK   87  A    between atoms: _200  and  _203
REMARK   88  A    between atoms: _203  and  _204
REMARK   89  A    between atoms: _208  and  _209
REMARK   90  A    between atoms: _214  and  _216
REMARK   91  A    between atoms: _216  and  _217
REMARK   92  A    between atoms: _216  and  _219
REMARK   93  A    between atoms: _219  and  _220
REMARK   94  A    between atoms: _224  and  _225
REMARK   95  A    between atoms: _230  and  _232
REMARK   96  A    between atoms: _232  and  _233
REMARK   97  A    between atoms: _232  and  _235
REMARK   98  A    between atoms: _238  and  _240
REMARK   99  A    between atoms: _240  and  _241
REMARK  100  A    between atoms: _240  and  _243
REMARK  101  A    between atoms: _243  and  _244
REMARK  102  A    between atoms: _249  and  _251
REMARK  103  A    between atoms: _251  and  _252
REMARK  104  A    between atoms: _251  and  _254
REMARK  105  A    between atoms: _257  and  _259
REMARK  106  A    between atoms: _259  and  _260
REMARK  107  A    between atoms: _259  and  _262
REMARK  108  A    between atoms: _262  and  _263
REMARK  109  A    between atoms: _266  and  _268
REMARK  110  A    between atoms: _268  and  _269
REMARK  111  A    between atoms: _271  and  _273
REMARK  112  A    between atoms: _273  and  _274
REMARK  113  A    between atoms: _273  and  _276
REMARK  114  A    between atoms: _276  and  _277
REMARK  115  A    between atoms: _277  and  _278
REMARK  116  A    between atoms: _278  and  _279
REMARK  117  A    between atoms: _288  and  _290
REMARK  118  A    between atoms: _290  and  _291
REMARK  119  A    between atoms: _290  and  _293
REMARK  120  A    between atoms: _293  and  _294
REMARK  121  A    between atoms: _299  and  _301
REMARK  122  A    between atoms: _301  and  _302
REMARK  123  A    between atoms: _301  and  _304
REMARK  124  A    between atoms: _304  and  _305
REMARK  125  A    between atoms: _305  and  _306
REMARK  126  A    between atoms: _306  and  _307
REMARK  127  A    between atoms: _316  and  _318
REMARK  128  A    between atoms: _318  and  _319
REMARK  129  A    between atoms: _318  and  _321
REMARK  130  A    between atoms: _321  and  _322
REMARK  131  A    between atoms: _325  and  _327
REMARK  132  A    between atoms: _327  and  _328
REMARK  133  A    between atoms: _327  and  _330
REMARK  134  A    between atoms: _330  and  _331
REMARK  135  A    between atoms: _334  and  _336
REMARK  136  A    between atoms: _336  and  _337
REMARK  137  A    between atoms: _336  and  _339
REMARK  138  A    between atoms: _339  and  _340
REMARK  139  A    between atoms: _343  and  _345
REMARK  140  A    between atoms: _345  and  _346
REMARK  141  A    between atoms: _345  and  _348
REMARK  142  A    between atoms: _348  and  _349
REMARK  143  A    between atoms: _352  and  _354
REMARK  144  A    between atoms: _354  and  _355
REMARK  145  A    between atoms: _357  and  _359
REMARK  146  A    between atoms: _359  and  _360
REMARK  147  A    between atoms: _363  and  _365
REMARK  148  A    between atoms: _365  and  _366
REMARK  149  A    between atoms: _365  and  _368
REMARK  150  A    between atoms: _368  and  _369
REMARK  151  A    between atoms: _372  and  _374
REMARK  152  A    between atoms: _374  and  _375
REMARK  153  A    between atoms: _374  and  _377
REMARK  154  A    between atoms: _377  and  _378
REMARK  155  A    between atoms: _381  and  _383
REMARK  156  A    between atoms: _383  and  _384
REMARK  157  A    between atoms: _383  and  _386
REMARK  158  A    between atoms: _386  and  _387
REMARK  159  A    between atoms: _390  and  _392
REMARK  160  A    between atoms: _392  and  _393
REMARK  161  A    between atoms: _392  and  _395
REMARK  162  A    between atoms: _398  and  _400
REMARK  163  A    between atoms: _400  and  _401
REMARK  164  A    between atoms: _400  and  _403
REMARK  165  A    between atoms: _403  and  _404
REMARK  166  A    between atoms: _407  and  _409
REMARK  167  A    between atoms: _409  and  _410
REMARK  168  A    between atoms: _409  and  _412
REMARK  169  A    between atoms: _412  and  _413
REMARK  170  A    between atoms: _413  and  _414
REMARK  171  A    between atoms: _414  and  _415
REMARK  172  A    between atoms: _415  and  _416
REMARK  173  A    between atoms: _420  and  _422
REMARK  174  A    between atoms: _422  and  _423
REMARK  175  A    between atoms: _422  and  _425
REMARK  176  A    between atoms: _425  and  _426
REMARK  177  A    between atoms: _426  and  _427
REMARK  178  A    between atoms: _429  and  _431
REMARK  179  A    between atoms: _431  and  _432
REMARK  180  A    between atoms: _431  and  _434
REMARK  181  A    between atoms: _434  and  _435
REMARK  182  A    between atoms: _438  and  _440
REMARK  183  A    between atoms: _440  and  _441
REMARK  184  A    between atoms: _443  and  _445
REMARK  185  A    between atoms: _445  and  _446
REMARK  186  A    between atoms: _448  and  _450
REMARK  187  A    between atoms: _450  and  _451
REMARK  188  A    between atoms: _450  and  _453
REMARK  189  A    between atoms: _453  and  _454
REMARK  190  A    between atoms: _457  and  _459
REMARK  191  A    between atoms: _459  and  _460
REMARK  192  A    between atoms: _462  and  _464
REMARK  193  A    between atoms: _464  and  _465
REMARK  194  A    between atoms: _467  and  _469
REMARK  195  A    between atoms: _469  and  _470
REMARK  196  A    between atoms: _469  and  _472
REMARK  197  A    between atoms: _472  and  _473
REMARK  198  A    between atoms: _476  and  _478
REMARK  199  A    between atoms: _478  and  _479
REMARK  200  A    between atoms: _478  and  _481
REMARK  201  A    between atoms: _484  and  _486
REMARK  202  A    between atoms: _486  and  _487
REMARK  203  A    between atoms: _486  and  _489
REMARK  204  A    between atoms: _489  and  _490
REMARK  205  A    between atoms: _493  and  _495
REMARK  206  A    between atoms: _495  and  _496
REMARK  207  A    between atoms: _495  and  _498
REMARK  208  A    between atoms: _498  and  _499
REMARK  209  A    between atoms: _503  and  _504
REMARK  210  A    between atoms: _509  and  _511
REMARK  211  A    between atoms: _511  and  _512
REMARK  212  A    between atoms: _511  and  _514
REMARK  213  A    between atoms: _517  and  _519
REMARK  214  A    between atoms: _519  and  _520
REMARK  215  A    between atoms: _519  and  _522
REMARK  216  A    between atoms: _522  and  _523
REMARK  217  A    between atoms: _528  and  _530
REMARK  218  A    between atoms: _530  and  _531
REMARK  219  A    between atoms: _530  and  _533
REMARK  220  A    between atoms: _536  and  _538
REMARK  221  A    between atoms: _538  and  _539
REMARK  222  A    between atoms: _538  and  _541
REMARK  223  A    between atoms: _541  and  _542
REMARK  224  A    between atoms: _545  and  _547
REMARK  225  A    between atoms: _547  and  _548
REMARK  226  A    between atoms: _550  and  _552
REMARK  227  A    between atoms: _552  and  _553
REMARK  228  A    between atoms: _552  and  _555
REMARK  229  A    between atoms: _555  and  _556
REMARK  230  A    between atoms: _556  and  _557
REMARK  231  A    between atoms: _557  and  _558
REMARK  232  A    between atoms: _567  and  _569
REMARK  233  A    between atoms: _569  and  _570
REMARK  234  A    between atoms: _569  and  _572
REMARK  235  A    between atoms: _572  and  _573
REMARK                            x       y       z     vdW  Elec       q    Type
REMARK                         _______ _______ _______ _____ _____    ______ ____
ROOT
ATOM      1  O   HOH     1       4.131   9.350  11.540  0.00  0.00    +0.000 OA
ENDROOT
TORSDOF 0
REMARK  Name = ../refined-set-2016/3nu9/3nu9_pocket.pdb
REMARK  235 active torsions:
REMARK  status: ('A' for Active; 'I' for Inactive)
REMARK    1  A    between atoms: _1  and  _3
REMARK    2  A    between atoms: _3  and  _4
REMARK    3  A    between atoms: _3  and  _6
REMARK    4  A    between atoms: _6  and  _7
REMARK    5  A    between atoms: _7  and  _8
REMARK    6  A    between atoms: _8  and  _9
REMARK    7  A    between atoms: _18  and  _20
REMARK    8  A    between atoms: _20  and  _21
REMARK    9  A    between atoms: _20  and  _23
REMARK   10  A    between atoms: _23  and  _24
REMARK   11  A    between atoms: _27  and  _29
REMARK   12  A    between atoms: _29  and  _30
REMARK   13  A    between atoms: _29  and  _32
REMARK   14  A    between atoms: _32  and  _33
REMARK   15  A    between atoms: _36  and  _38
REMARK   16  A    between atoms: _38  and  _39
REMARK   17  A    between atoms: _38  and  _41
REMARK   18  A    between atoms: _41  and  _42
REMARK   19  A    between atoms: _45  and  _47
REMARK   20  A    between atoms: _47  and  _48
REMARK   21  A    between atoms: _47  and  _50
REMARK   22  A    between atoms: _50  and  _51
REMARK   23  A    between atoms: _54  and  _56
REMARK   24  A    between atoms: _56  and  _57
REMARK   25  A    between atoms: _59  and  _61
REMARK   26  A    between atoms: _61  and  _62
REMARK   27  A    between atoms: _65  and  _67
REMARK   28  A    between atoms: _67  and  _68
REMARK   29  A    between atoms: _67  and  _70
REMARK   30  A    between atoms: _70  and  _71
REMARK   31  A    between atoms: _74  and  _76
REMARK   32  A    between atoms: _76  and  _77
REMARK   33  A    between atoms: _76  and  _79
REMARK   34  A    between atoms: _79  and  _80
REMARK   35  A    between atoms: _83  and  _85
REMARK   36  A    between atoms: _85  and  _86
REMARK   37  A    between atoms: _85  and  _88
REMARK   38  A    between atoms: _88  and  _89
REMARK   39  A    between atoms: _92  and  _94
REMARK   40  A    between atoms: _94  and  _95
REMARK   41  A    between atoms: _94  and  _97
REMARK   42  A    between atoms: _100  and  _102
REMARK   43  A    between atoms: _102  and  _103
REMARK   44  A    between atoms: _102  and  _105
REMARK   45  A    between atoms: _105  and  _106
REMARK   46  A    between atoms: _109  and  _111
REMARK   47  A    between atoms: _111  and  _112
REMARK   48  A    between atoms: _111  and  _114
REMARK   49  A    between atoms: _114  and  _115
REMARK   50  A    between atoms: _115  and  _116
REMARK   51  A    between atoms: _116  and  _117
REMARK   52  A    between atoms: _117  and  _118
REMARK   53  A    between atoms: _122  and  _124
REMARK   54  A    between atoms: _124  and  _125
REMARK   55  A    between atoms: _124  and  _127
REMARK   56  A    between atoms: _127  and  _128
REMARK   57  A    between atoms: _128  and  _129
REMARK   58  A    between atoms: _131  and  _133
REMARK   59  A    between atoms: _133  and  _134
REMARK   60  A    between atoms: _133  and  _136
REMARK   61  A    between atoms: _136  and  _137
REMARK   62  A    between atoms: _140  and  _142
REMARK   63  A    between atoms: _142  and  _143
REMARK   64  A    between atoms: _145  and  _147
REMARK   65  A    between atoms: _147  and  _148
REMARK   66  A    between atoms: _150  and  _152
REMARK   67  A    between atoms: _152  and  _153
REMARK   68  A    between atoms: _152  and  _155
REMARK   69  A    between atoms: _155  and  _156
REMARK   70  A    between atoms: _159  and  _161
REMARK   71  A    between atoms: _161  and  _162
REMARK   72  A    between atoms: _164  and  _166
REMARK   73  A    between atoms: _166  and  _167
REMARK   74  A    between atoms: _169  and  _171
REMARK   75  A    between atoms: _171  and  _172
REMARK   76  A    between atoms: _171  and  _174
REMARK   77  A    between atoms: _174  and  _175
REMARK   78  A    between atoms: _181  and  _183
REMARK   79  A    between atoms: _183  and  _184
REMARK   80  A    between atoms: _183  and  _186
REMARK   81  A    between atoms: _186  and  _187
REMARK   82  A    between atoms: _190  and  _192
REMARK   83  A    between atoms: _192  and  _193
REMARK   84  A    between atoms: _192  and  _195
REMARK   85  A    between atoms: _198  and  _200
REMARK   86  A    between atoms: _200  and  _201
REMARK   87  A    between atoms: _200  and  _203
REMARK   88  A    between atoms: _203  and  _204
REMARK   89  A    between atoms: _208  and  _209
REMARK   90  A    between atoms: _214  and  _216
REMARK   91  A    between atoms: _216  and  _217
REMARK   92  A    between atoms: _216  and  _219
REMARK   93  A    between atoms: _219  and  _220
REMARK   94  A    between atoms: _224  and  _225
REMARK   95  A    between atoms: _230  and  _232
REMARK   96  A    between atoms: _232  and  _233
REMARK   97  A    between atoms: _232  and  _235
REMARK   98  A    between atoms: _238  and  _240
REMARK   99  A    between atoms: _240  and  _241
REMARK  100  A    between atoms: _240  and  _243
REMARK  101  A    between atoms: _243  and  _244
REMARK  102  A    between atoms: _249  and  _251
REMARK  103  A    between atoms: _251  and  _252
REMARK  104  A    between atoms: _251  and  _254
REMARK  105  A    between atoms: _257  and  _259
REMARK  106  A    between atoms: _259  and  _260
REMARK  107  A    between atoms: _259  and  _262
REMARK  108  A    between atoms: _262  and  _263
REMARK  109  A    between atoms: _266  and  _268
REMARK  110  A    between atoms: _268  and  _269
REMARK  111  A    between atoms: _271  and  _273
REMARK  112  A    between atoms: _273  and  _274
REMARK  113  A    between atoms: _273  and  _276
REMARK  114  A    between atoms: _276  and  _277
REMARK  115  A    between atoms: _277  and  _278
REMARK  116  A    between atoms: _278  and  _279
REMARK  117  A    between atoms: _288  and  _290
REMARK  118  A    between atoms: _290  and  _291
REMARK  119  A    between atoms: _290  and  _293
REMARK  120  A    between atoms: _293  and  _294
REMARK  121  A    between atoms: _299  and  _301
REMARK  122  A    between atoms: _301  and  _302
REMARK  123  A    between atoms: _301  and  _304
REMARK  124  A    between atoms: _304  and  _305
REMARK  125  A    between atoms: _305  and  _306
REMARK  126  A    between atoms: _306  and  _307
REMARK  127  A    between atoms: _316  and  _318
REMARK  128  A    between atoms: _318  and  _319
REMARK  129  A    between atoms: _318  and  _321
REMARK  130  A    between atoms: _321  and  _322
REMARK  131  A    between atoms: _325  and  _327
REMARK  132  A    between atoms: _327  and  _328
REMARK  133  A    between atoms: _327  and  _330
REMARK  134  A    between atoms: _330  and  _331
REMARK  135  A    between atoms: _334  and  _336
REMARK  136  A    between atoms: _336  and  _337
REMARK  137  A    between atoms: _336  and  _339
REMARK  138  A    between atoms: _339  and  _340
REMARK  139  A    between atoms: _343  and  _345
REMARK  140  A    between atoms: _345  and  _346
REMARK  141  A    between atoms: _345  and  _348
REMARK  142  A    between atoms: _348  and  _349
REMARK  143  A    between atoms: _352  and  _354
REMARK  144  A    between atoms: _354  and  _355
REMARK  145  A    between atoms: _357  and  _359
REMARK  146  A    between atoms: _359  and  _360
REMARK  147  A    between atoms: _363  and  _365
REMARK  148  A    between atoms: _365  and  _366
REMARK  149  A    between atoms: _365  and  _368
REMARK  150  A    between atoms: _368  and  _369
REMARK  151  A    between atoms: _372  and  _374
REMARK  152  A    between atoms: _374  and  _375
REMARK  153  A    between atoms: _374  and  _377
REMARK  154  A    between atoms: _377  and  _378
REMARK  155  A    between atoms: _381  and  _383
REMARK  156  A    between atoms: _383  and  _384
REMARK  157  A    between atoms: _383  and  _386
REMARK  158  A    between atoms: _386  and  _387
REMARK  159  A    between atoms: _390  and  _392
REMARK  160  A    between atoms: _392  and  _393
REMARK  161  A    between atoms: _392  and  _395
REMARK  162  A    between atoms: _398  and  _400
REMARK  163  A    between atoms: _400  and  _401
REMARK  164  A    between atoms: _400  and  _403
REMARK  165  A    between atoms: _403  and  _404
REMARK  166  A    between atoms: _407  and  _409
REMARK  167  A    between atoms: _409  and  _410
REMARK  168  A    between atoms: _409  and  _412
REMARK  169  A    between atoms: _412  and  _413
REMARK  170  A    between atoms: _413  and  _414
REMARK  171  A    between atoms: _414  and  _415
REMARK  172  A    between atoms: _415  and  _416
REMARK  173  A    between atoms: _420  and  _422
REMARK  174  A    between atoms: _422  and  _423
REMARK  175  A    between atoms: _422  and  _425
REMARK  176  A    between atoms: _425  and  _426
REMARK  177  A    between atoms: _426  and  _427
REMARK  178  A    between atoms: _429  and  _431
REMARK  179  A    between atoms: _431  and  _432
REMARK  180  A    between atoms: _431  and  _434
REMARK  181  A    between atoms: _434  and  _435
REMARK  182  A    between atoms: _438  and  _440
REMARK  183  A    between atoms: _440  and  _441
REMARK  184  A    between atoms: _443  and  _445
REMARK  185  A    between atoms: _445  and  _446
REMARK  186  A    between atoms: _448  and  _450
REMARK  187  A    between atoms: _450  and  _451
REMARK  188  A    between atoms: _450  and  _453
REMARK  189  A    between atoms: _453  and  _454
REMARK  190  A    between atoms: _457  and  _459
REMARK  191  A    between atoms: _459  and  _460
REMARK  192  A    between atoms: _462  and  _464
REMARK  193  A    between atoms: _464  and  _465
REMARK  194  A    between atoms: _467  and  _469
REMARK  195  A    between atoms: _469  and  _470
REMARK  196  A    between atoms: _469  and  _472
REMARK  197  A    between atoms: _472  and  _473
REMARK  198  A    between atoms: _476  and  _478
REMARK  199  A    between atoms: _478  and  _479
REMARK  200  A    between atoms: _478  and  _481
REMARK  201  A    between atoms: _484  and  _486
REMARK  202  A    between atoms: _486  and  _487
REMARK  203  A    between atoms: _486  and  _489
REMARK  204  A    between atoms: _489  and  _490
REMARK  205  A    between atoms: _493  and  _495
REMARK  206  A    between atoms: _495  and  _496
REMARK  207  A    between atoms: _495  and  _498
REMARK  208  A    between atoms: _498  and  _499
REMARK  209  A    between atoms: _503  and  _504
REMARK  210  A    between atoms: _509  and  _511
REMARK  211  A    between atoms: _511  and  _512
REMARK  212  A    between atoms: _511  and  _514
REMARK  213  A    between atoms: _517  and  _519
REMARK  214  A    between atoms: _519  and  _520
REMARK  215  A    between atoms: _519  and  _522
REMARK  216  A    between atoms: _522  and  _523
REMARK  217  A    between atoms: _528  and  _530
REMARK  218  A    between atoms: _530  and  _531
REMARK  219  A    between atoms: _530  and  _533
REMARK  220  A    between atoms: _536  and  _538
REMARK  221  A    between atoms: _538  and  _539
REMARK  222  A    between atoms: _538  and  _541
REMARK  223  A    between atoms: _541  and  _542
REMARK  224  A    between atoms: _545  and  _547
REMARK  225  A    between atoms: _547  and  _548
REMARK  226  A    between atoms: _550  and  _552
REMARK  227  A    between atoms: _552  and  _553
REMARK  228  A    between atoms: _552  and  _555
REMARK  229  A    between atoms: _555  and  _556
REMARK  230  A    between atoms: _556  and  _557
REMARK  231  A    between atoms: _557  and  _558
REMARK  232  A    between atoms: _567  and  _569
REMARK  233  A    between atoms: _569  and  _570
REMARK  234  A    between atoms: _569  and  _572
REMARK  235  A    between atoms: _572  and  _573
REMARK                            x       y       z     vdW  Elec       q    Type
REMARK                         _______ _______ _______ _____ _____    ______ ____
ROOT
ATOM      1  O   HOH     1      19.750  25.378  10.991  0.00  0.00    +0.000 OA
ENDROOT
TORSDOF 0
REMARK  Name = ../refined-set-2016/3nu9/3nu9_pocket.pdb
REMARK  235 active torsions:
REMARK  status: ('A' for Active; 'I' for Inactive)
REMARK    1  A    between atoms: _1  and  _3
REMARK    2  A    between atoms: _3  and  _4
REMARK    3  A    between atoms: _3  and  _6
REMARK    4  A    between atoms: _6  and  _7
REMARK    5  A    between atoms: _7  and  _8
REMARK    6  A    between atoms: _8  and  _9
REMARK    7  A    between atoms: _18  and  _20
REMARK    8  A    between atoms: _20  and  _21
REMARK    9  A    between atoms: _20  and  _23
REMARK   10  A    between atoms: _23  and  _24
REMARK   11  A    between atoms: _27  and  _29
REMARK   12  A    between atoms: _29  and  _30
REMARK   13  A    between atoms: _29  and  _32
REMARK   14  A    between atoms: _32  and  _33
REMARK   15  A    between atoms: _36  and  _38
REMARK   16  A    between atoms: _38  and  _39
REMARK   17  A    between atoms: _38  and  _41
REMARK   18  A    between atoms: _41  and  _42
REMARK   19  A    between atoms: _45  and  _47
REMARK   20  A    between atoms: _47  and  _48
REMARK   21  A    between atoms: _47  and  _50
REMARK   22  A    between atoms: _50  and  _51
REMARK   23  A    between atoms: _54  and  _56
REMARK   24  A    between atoms: _56  and  _57
REMARK   25  A    between atoms: _59  and  _61
REMARK   26  A    between atoms: _61  and  _62
REMARK   27  A    between atoms: _65  and  _67
REMARK   28  A    between atoms: _67  and  _68
REMARK   29  A    between atoms: _67  and  _70
REMARK   30  A    between atoms: _70  and  _71
REMARK   31  A    between atoms: _74  and  _76
REMARK   32  A    between atoms: _76  and  _77
REMARK   33  A    between atoms: _76  and  _79
REMARK   34  A    between atoms: _79  and  _80
REMARK   35  A    between atoms: _83  and  _85
REMARK   36  A    between atoms: _85  and  _86
REMARK   37  A    between atoms: _85  and  _88
REMARK   38  A    between atoms: _88  and  _89
REMARK   39  A    between atoms: _92  and  _94
REMARK   40  A    between atoms: _94  and  _95
REMARK   41  A    between atoms: _94  and  _97
REMARK   42  A    between atoms: _100  and  _102
REMARK   43  A    between atoms: _102  and  _103
REMARK   44  A    between atoms: _102  and  _105
REMARK   45  A    between atoms: _105  and  _106
REMARK   46  A    between atoms: _109  and  _111
REMARK   47  A    between atoms: _111  and  _112
REMARK   48  A    between atoms: _111  and  _114
REMARK   49  A    between atoms: _114  and  _115
REMARK   50  A    between atoms: _115  and  _116
REMARK   51  A    between atoms: _116  and  _117
REMARK   52  A    between atoms: _117  and  _118
REMARK   53  A    between atoms: _122  and  _124
REMARK   54  A    between atoms: _124  and  _125
REMARK   55  A    between atoms: _124  and  _127
REMARK   56  A    between atoms: _127  and  _128
REMARK   57  A    between atoms: _128  and  _129
REMARK   58  A    between atoms: _131  and  _133
REMARK   59  A    between atoms: _133  and  _134
REMARK   60  A    between atoms: _133  and  _136
REMARK   61  A    between atoms: _136  and  _137
REMARK   62  A    between atoms: _140  and  _142
REMARK   63  A    between atoms: _142  and  _143
REMARK   64  A    between atoms: _145  and  _147
REMARK   65  A    between atoms: _147  and  _148
REMARK   66  A    between atoms: _150  and  _152
REMARK   67  A    between atoms: _152  and  _153
REMARK   68  A    between atoms: _152  and  _155
REMARK   69  A    between atoms: _155  and  _156
REMARK   70  A    between atoms: _159  and  _161
REMARK   71  A    between atoms: _161  and  _162
REMARK   72  A    between atoms: _164  and  _166
REMARK   73  A    between atoms: _166  and  _167
REMARK   74  A    between atoms: _169  and  _171
REMARK   75  A    between atoms: _171  and  _172
REMARK   76  A    between atoms: _171  and  _174
REMARK   77  A    between atoms: _174  and  _175
REMARK   78  A    between atoms: _181  and  _183
REMARK   79  A    between atoms: _183  and  _184
REMARK   80  A    between atoms: _183  and  _186
REMARK   81  A    between atoms: _186  and  _187
REMARK   82  A    between atoms: _190  and  _192
REMARK   83  A    between atoms: _192  and  _193
REMARK   84  A    between atoms: _192  and  _195
REMARK   85  A    between atoms: _198  and  _200
REMARK   86  A    between atoms: _200  and  _201
REMARK   87  A    between atoms: _200  and  _203
REMARK   88  A    between atoms: _203  and  _204
REMARK   89  A    between atoms: _208  and  _209
REMARK   90  A    between atoms: _214  and  _216
REMARK   91  A    between atoms: _216  and  _217
REMARK   92  A    between atoms: _216  and  _219
REMARK   93  A    between atoms: _219  and  _220
REMARK   94  A    between atoms: _224  and  _225
REMARK   95  A    between atoms: _230  and  _232
REMARK   96  A    between atoms: _232  and  _233
REMARK   97  A    between atoms: _232  and  _235
REMARK   98  A    between atoms: _238  and  _240
REMARK   99  A    between atoms: _240  and  _241
REMARK  100  A    between atoms: _240  and  _243
REMARK  101  A    between atoms: _243  and  _244
REMARK  102  A    between atoms: _249  and  _251
REMARK  103  A    between atoms: _251  and  _252
REMARK  104  A    between atoms: _251  and  _254
REMARK  105  A    between atoms: _257  and  _259
REMARK  106  A    between atoms: _259  and  _260
REMARK  107  A    between atoms: _259  and  _262
REMARK  108  A    between atoms: _262  and  _263
REMARK  109  A    between atoms: _266  and  _268
REMARK  110  A    between atoms: _268  and  _269
REMARK  111  A    between atoms: _271  and  _273
REMARK  112  A    between atoms: _273  and  _274
REMARK  113  A    between atoms: _273  and  _276
REMARK  114  A    between atoms: _276  and  _277
REMARK  115  A    between atoms: _277  and  _278
REMARK  116  A    between atoms: _278  and  _279
REMARK  117  A    between atoms: _288  and  _290
REMARK  118  A    between atoms: _290  and  _291
REMARK  119  A    between atoms: _290  and  _293
REMARK  120  A    between atoms: _293  and  _294
REMARK  121  A    between atoms: _299  and  _301
REMARK  122  A    between atoms: _301  and  _302
REMARK  123  A    between atoms: _301  and  _304
REMARK  124  A    between atoms: _304  and  _305
REMARK  125  A    between atoms: _305  and  _306
REMARK  126  A    between atoms: _306  and  _307
REMARK  127  A    between atoms: _316  and  _318
REMARK  128  A    between atoms: _318  and  _319
REMARK  129  A    between atoms: _318  and  _321
REMARK  130  A    between atoms: _321  and  _322
REMARK  131  A    between atoms: _325  and  _327
REMARK  132  A    between atoms: _327  and  _328
REMARK  133  A    between atoms: _327  and  _330
REMARK  134  A    between atoms: _330  and  _331
REMARK  135  A    between atoms: _334  and  _336
REMARK  136  A    between atoms: _336  and  _337
REMARK  137  A    between atoms: _336  and  _339
REMARK  138  A    between atoms: _339  and  _340
REMARK  139  A    between atoms: _343  and  _345
REMARK  140  A    between atoms: _345  and  _346
REMARK  141  A    between atoms: _345  and  _348
REMARK  142  A    between atoms: _348  and  _349
REMARK  143  A    between atoms: _352  and  _354
REMARK  144  A    between atoms: _354  and  _355
REMARK  145  A    between atoms: _357  and  _359
REMARK  146  A    between atoms: _359  and  _360
REMARK  147  A    between atoms: _363  and  _365
REMARK  148  A    between atoms: _365  and  _366
REMARK  149  A    between atoms: _365  and  _368
REMARK  150  A    between atoms: _368  and  _369
REMARK  151  A    between atoms: _372  and  _374
REMARK  152  A    between atoms: _374  and  _375
REMARK  153  A    between atoms: _374  and  _377
REMARK  154  A    between atoms: _377  and  _378
REMARK  155  A    between atoms: _381  and  _383
REMARK  156  A    between atoms: _383  and  _384
REMARK  157  A    between atoms: _383  and  _386
REMARK  158  A    between atoms: _386  and  _387
REMARK  159  A    between atoms: _390  and  _392
REMARK  160  A    between atoms: _392  and  _393
REMARK  161  A    between atoms: _392  and  _395
REMARK  162  A    between atoms: _398  and  _400
REMARK  163  A    between atoms: _400  and  _401
REMARK  164  A    between atoms: _400  and  _403
REMARK  165  A    between atoms: _403  and  _404
REMARK  166  A    between atoms: _407  and  _409
REMARK  167  A    between atoms: _409  and  _410
REMARK  168  A    between atoms: _409  and  _412
REMARK  169  A    between atoms: _412  and  _413
REMARK  170  A    between atoms: _413  and  _414
REMARK  171  A    between atoms: _414  and  _415
REMARK  172  A    between atoms: _415  and  _416
REMARK  173  A    between atoms: _420  and  _422
REMARK  174  A    between atoms: _422  and  _423
REMARK  175  A    between atoms: _422  and  _425
REMARK  176  A    between atoms: _425  and  _426
REMARK  177  A    between atoms: _426  and  _427
REMARK  178  A    between atoms: _429  and  _431
REMARK  179  A    between atoms: _431  and  _432
REMARK  180  A    between atoms: _431  and  _434
REMARK  181  A    between atoms: _434  and  _435
REMARK  182  A    between atoms: _438  and  _440
REMARK  183  A    between atoms: _440  and  _441
REMARK  184  A    between atoms: _443  and  _445
REMARK  185  A    between atoms: _445  and  _446
REMARK  186  A    between atoms: _448  and  _450
REMARK  187  A    between atoms: _450  and  _451
REMARK  188  A    between atoms: _450  and  _453
REMARK  189  A    between atoms: _453  and  _454
REMARK  190  A    between atoms: _457  and  _459
REMARK  191  A    between atoms: _459  and  _460
REMARK  192  A    between atoms: _462  and  _464
REMARK  193  A    between atoms: _464  and  _465
REMARK  194  A    between atoms: _467  and  _469
REMARK  195  A    between atoms: _469  and  _470
REMARK  196  A    between atoms: _469  and  _472
REMARK  197  A    between atoms: _472  and  _473
REMARK  198  A    between atoms: _476  and  _478
REMARK  199  A    between atoms: _478  and  _479
REMARK  200  A    between atoms: _478  and  _481
REMARK  201  A    between atoms: _484  and  _486
REMARK  202  A    between atoms: _486  and  _487
REMARK  203  A    between atoms: _486  and  _489
REMARK  204  A    between atoms: _489  and  _490
REMARK  205  A    between atoms: _493  and  _495
REMARK  206  A    between atoms: _495  and  _496
REMARK  207  A    between atoms: _495  and  _498
REMARK  208  A    between atoms: _498  and  _499
REMARK  209  A    between atoms: _503  and  _504
REMARK  210  A    between atoms: _509  and  _511
REMARK  211  A    between atoms: _511  and  _512
REMARK  212  A    between atoms: _511  and  _514
REMARK  213  A    between atoms: _517  and  _519
REMARK  214  A    between atoms: _519  and  _520
REMARK  215  A    between atoms: _519  and  _522
REMARK  216  A    between atoms: _522  and  _523
REMARK  217  A    between atoms: _528  and  _530
REMARK  218  A    between atoms: _530  and  _531
REMARK  219  A    between atoms: _530  and  _533
REMARK  220  A    between atoms: _536  and  _538
REMARK  221  A    between atoms: _538  and  _539
REMARK  222  A    between atoms: _538  and  _541
REMARK  223  A    between atoms: _541  and  _542
REMARK  224  A    between atoms: _545  and  _547
REMARK  225  A    between atoms: _547  and  _548
REMARK  226  A    between atoms: _550  and  _552
REMARK  227  A    between atoms: _552  and  _553
REMARK  228  A    between atoms: _552  and  _555
REMARK  229  A    between atoms: _555  and  _556
REMARK  230  A    between atoms: _556  and  _557
REMARK  231  A    between atoms: _557  and  _558
REMARK  232  A    between atoms: _567  and  _569
REMARK  233  A    between atoms: _569  and  _570
REMARK  234  A    between atoms: _569  and  _572
REMARK  235  A    between atoms: _572  and  _573
REMARK                            x       y       z     vdW  Elec       q    Type
REMARK                         _______ _______ _______ _____ _____    ______ ____
ROOT
ATOM      1  O   HOH     1       3.430  17.551  18.535  0.00  0.00    +0.000 OA
ENDROOT
TORSDOF 0
REMARK  Name = ../refined-set-2016/3nu9/3nu9_pocket.pdb
REMARK  235 active torsions:
REMARK  status: ('A' for Active; 'I' for Inactive)
REMARK    1  A    between atoms: _1  and  _3
REMARK    2  A    between atoms: _3  and  _4
REMARK    3  A    between atoms: _3  and  _6
REMARK    4  A    between atoms: _6  and  _7
REMARK    5  A    between atoms: _7  and  _8
REMARK    6  A    between atoms: _8  and  _9
REMARK    7  A    between atoms: _18  and  _20
REMARK    8  A    between atoms: _20  and  _21
REMARK    9  A    between atoms: _20  and  _23
REMARK   10  A    between atoms: _23  and  _24
REMARK   11  A    between atoms: _27  and  _29
REMARK   12  A    between atoms: _29  and  _30
REMARK   13  A    between atoms: _29  and  _32
REMARK   14  A    between atoms: _32  and  _33
REMARK   15  A    between atoms: _36  and  _38
REMARK   16  A    between atoms: _38  and  _39
REMARK   17  A    between atoms: _38  and  _41
REMARK   18  A    between atoms: _41  and  _42
REMARK   19  A    between atoms: _45  and  _47
REMARK   20  A    between atoms: _47  and  _48
REMARK   21  A    between atoms: _47  and  _50
REMARK   22  A    between atoms: _50  and  _51
REMARK   23  A    between atoms: _54  and  _56
REMARK   24  A    between atoms: _56  and  _57
REMARK   25  A    between atoms: _59  and  _61
REMARK   26  A    between atoms: _61  and  _62
REMARK   27  A    between atoms: _65  and  _67
REMARK   28  A    between atoms: _67  and  _68
REMARK   29  A    between atoms: _67  and  _70
REMARK   30  A    between atoms: _70  and  _71
REMARK   31  A    between atoms: _74  and  _76
REMARK   32  A    between atoms: _76  and  _77
REMARK   33  A    between atoms: _76  and  _79
REMARK   34  A    between atoms: _79  and  _80
REMARK   35  A    between atoms: _83  and  _85
REMARK   36  A    between atoms: _85  and  _86
REMARK   37  A    between atoms: _85  and  _88
REMARK   38  A    between atoms: _88  and  _89
REMARK   39  A    between atoms: _92  and  _94
REMARK   40  A    between atoms: _94  and  _95
REMARK   41  A    between atoms: _94  and  _97
REMARK   42  A    between atoms: _100  and  _102
REMARK   43  A    between atoms: _102  and  _103
REMARK   44  A    between atoms: _102  and  _105
REMARK   45  A    between atoms: _105  and  _106
REMARK   46  A    between atoms: _109  and  _111
REMARK   47  A    between atoms: _111  and  _112
REMARK   48  A    between atoms: _111  and  _114
REMARK   49  A    between atoms: _114  and  _115
REMARK   50  A    between atoms: _115  and  _116
REMARK   51  A    between atoms: _116  and  _117
REMARK   52  A    between atoms: _117  and  _118
REMARK   53  A    between atoms: _122  and  _124
REMARK   54  A    between atoms: _124  and  _125
REMARK   55  A    between atoms: _124  and  _127
REMARK   56  A    between atoms: _127  and  _128
REMARK   57  A    between atoms: _128  and  _129
REMARK   58  A    between atoms: _131  and  _133
REMARK   59  A    between atoms: _133  and  _134
REMARK   60  A    between atoms: _133  and  _136
REMARK   61  A    between atoms: _136  and  _137
REMARK   62  A    between atoms: _140  and  _142
REMARK   63  A    between atoms: _142  and  _143
REMARK   64  A    between atoms: _145  and  _147
REMARK   65  A    between atoms: _147  and  _148
REMARK   66  A    between atoms: _150  and  _152
REMARK   67  A    between atoms: _152  and  _153
REMARK   68  A    between atoms: _152  and  _155
REMARK   69  A    between atoms: _155  and  _156
REMARK   70  A    between atoms: _159  and  _161
REMARK   71  A    between atoms: _161  and  _162
REMARK   72  A    between atoms: _164  and  _166
REMARK   73  A    between atoms: _166  and  _167
REMARK   74  A    between atoms: _169  and  _171
REMARK   75  A    between atoms: _171  and  _172
REMARK   76  A    between atoms: _171  and  _174
REMARK   77  A    between atoms: _174  and  _175
REMARK   78  A    between atoms: _181  and  _183
REMARK   79  A    between atoms: _183  and  _184
REMARK   80  A    between atoms: _183  and  _186
REMARK   81  A    between atoms: _186  and  _187
REMARK   82  A    between atoms: _190  and  _192
REMARK   83  A    between atoms: _192  and  _193
REMARK   84  A    between atoms: _192  and  _195
REMARK   85  A    between atoms: _198  and  _200
REMARK   86  A    between atoms: _200  and  _201
REMARK   87  A    between atoms: _200  and  _203
REMARK   88  A    between atoms: _203  and  _204
REMARK   89  A    between atoms: _208  and  _209
REMARK   90  A    between atoms: _214  and  _216
REMARK   91  A    between atoms: _216  and  _217
REMARK   92  A    between atoms: _216  and  _219
REMARK   93  A    between atoms: _219  and  _220
REMARK   94  A    between atoms: _224  and  _225
REMARK   95  A    between atoms: _230  and  _232
REMARK   96  A    between atoms: _232  and  _233
REMARK   97  A    between atoms: _232  and  _235
REMARK   98  A    between atoms: _238  and  _240
REMARK   99  A    between atoms: _240  and  _241
REMARK  100  A    between atoms: _240  and  _243
REMARK  101  A    between atoms: _243  and  _244
REMARK  102  A    between atoms: _249  and  _251
REMARK  103  A    between atoms: _251  and  _252
REMARK  104  A    between atoms: _251  and  _254
REMARK  105  A    between atoms: _257  and  _259
REMARK  106  A    between atoms: _259  and  _260
REMARK  107  A    between atoms: _259  and  _262
REMARK  108  A    between atoms: _262  and  _263
REMARK  109  A    between atoms: _266  and  _268
REMARK  110  A    between atoms: _268  and  _269
REMARK  111  A    between atoms: _271  and  _273
REMARK  112  A    between atoms: _273  and  _274
REMARK  113  A    between atoms: _273  and  _276
REMARK  114  A    between atoms: _276  and  _277
REMARK  115  A    between atoms: _277  and  _278
REMARK  116  A    between atoms: _278  and  _279
REMARK  117  A    between atoms: _288  and  _290
REMARK  118  A    between atoms: _290  and  _291
REMARK  119  A    between atoms: _290  and  _293
REMARK  120  A    between atoms: _293  and  _294
REMARK  121  A    between atoms: _299  and  _301
REMARK  122  A    between atoms: _301  and  _302
REMARK  123  A    between atoms: _301  and  _304
REMARK  124  A    between atoms: _304  and  _305
REMARK  125  A    between atoms: _305  and  _306
REMARK  126  A    between atoms: _306  and  _307
REMARK  127  A    between atoms: _316  and  _318
REMARK  128  A    between atoms: _318  and  _319
REMARK  129  A    between atoms: _318  and  _321
REMARK  130  A    between atoms: _321  and  _322
REMARK  131  A    between atoms: _325  and  _327
REMARK  132  A    between atoms: _327  and  _328
REMARK  133  A    between atoms: _327  and  _330
REMARK  134  A    between atoms: _330  and  _331
REMARK  135  A    between atoms: _334  and  _336
REMARK  136  A    between atoms: _336  and  _337
REMARK  137  A    between atoms: _336  and  _339
REMARK  138  A    between atoms: _339  and  _340
REMARK  139  A    between atoms: _343  and  _345
REMARK  140  A    between atoms: _345  and  _346
REMARK  141  A    between atoms: _345  and  _348
REMARK  142  A    between atoms: _348  and  _349
REMARK  143  A    between atoms: _352  and  _354
REMARK  144  A    between atoms: _354  and  _355
REMARK  145  A    between atoms: _357  and  _359
REMARK  146  A    between atoms: _359  and  _360
REMARK  147  A    between atoms: _363  and  _365
REMARK  148  A    between atoms: _365  and  _366
REMARK  149  A    between atoms: _365  and  _368
REMARK  150  A    between atoms: _368  and  _369
REMARK  151  A    between atoms: _372  and  _374
REMARK  152  A    between atoms: _374  and  _375
REMARK  153  A    between atoms: _374  and  _377
REMARK  154  A    between atoms: _377  and  _378
REMARK  155  A    between atoms: _381  and  _383
REMARK  156  A    between atoms: _383  and  _384
REMARK  157  A    between atoms: _383  and  _386
REMARK  158  A    between atoms: _386  and  _387
REMARK  159  A    between atoms: _390  and  _392
REMARK  160  A    between atoms: _392  and  _393
REMARK  161  A    between atoms: _392  and  _395
REMARK  162  A    between atoms: _398  and  _400
REMARK  163  A    between atoms: _400  and  _401
REMARK  164  A    between atoms: _400  and  _403
REMARK  165  A    between atoms: _403  and  _404
REMARK  166  A    between atoms: _407  and  _409
REMARK  167  A    between atoms: _409  and  _410
REMARK  168  A    between atoms: _409  and  _412
REMARK  169  A    between atoms: _412  and  _413
REMARK  170  A    between atoms: _413  and  _414
REMARK  171  A    between atoms: _414  and  _415
REMARK  172  A    between atoms: _415  and  _416
REMARK  173  A    between atoms: _420  and  _422
REMARK  174  A    between atoms: _422  and  _423
REMARK  175  A    between atoms: _422  and  _425
REMARK  176  A    between atoms: _425  and  _426
REMARK  177  A    between atoms: _426  and  _427
REMARK  178  A    between atoms: _429  and  _431
REMARK  179  A    between atoms: _431  and  _432
REMARK  180  A    between atoms: _431  and  _434
REMARK  181  A    between atoms: _434  and  _435
REMARK  182  A    between atoms: _438  and  _440
REMARK  183  A    between atoms: _440  and  _441
REMARK  184  A    between atoms: _443  and  _445
REMARK  185  A    between atoms: _445  and  _446
REMARK  186  A    between atoms: _448  and  _450
REMARK  187  A    between atoms: _450  and  _451
REMARK  188  A    between atoms: _450  and  _453
REMARK  189  A    between atoms: _453  and  _454
REMARK  190  A    between atoms: _457  and  _459
REMARK  191  A    between atoms: _459  and  _460
REMARK  192  A    between atoms: _462  and  _464
REMARK  193  A    between atoms: _464  and  _465
REMARK  194  A    between atoms: _467  and  _469
REMARK  195  A    between atoms: _469  and  _470
REMARK  196  A    between atoms: _469  and  _472
REMARK  197  A    between atoms: _472  and  _473
REMARK  198  A    between atoms: _476  and  _478
REMARK  199  A    between atoms: _478  and  _479
REMARK  200  A    between atoms: _478  and  _481
REMARK  201  A    between atoms: _484  and  _486
REMARK  202  A    between atoms: _486  and  _487
REMARK  203  A    between atoms: _486  and  _489
REMARK  204  A    between atoms: _489  and  _490
REMARK  205  A    between atoms: _493  and  _495
REMARK  206  A    between atoms: _495  and  _496
REMARK  207  A    between atoms: _495  and  _498
REMARK  208  A    between atoms: _498  and  _499
REMARK  209  A    between atoms: _503  and  _504
REMARK  210  A    between atoms: _509  and  _511
REMARK  211  A    between atoms: _511  and  _512
REMARK  212  A    between atoms: _511  and  _514
REMARK  213  A    between atoms: _517  and  _519
REMARK  214  A    between atoms: _519  and  _520
REMARK  215  A    between atoms: _519  and  _522
REMARK  216  A    between atoms: _522  and  _523
REMARK  217  A    between atoms: _528  and  _530
REMARK  218  A    between atoms: _530  and  _531
REMARK  219  A    between atoms: _530  and  _533
REMARK  220  A    between atoms: _536  and  _538
REMARK  221  A    between atoms: _538  and  _539
REMARK  222  A    between atoms: _538  and  _541
REMARK  223  A    between atoms: _541  and  _542
REMARK  224  A    between atoms: _545  and  _547
REMARK  225  A    between atoms: _547  and  _548
REMARK  226  A    between atoms: _550  and  _552
REMARK  227  A    between atoms: _552  and  _553
REMARK  228  A    between atoms: _552  and  _555
REMARK  229  A    between atoms: _555  and  _556
REMARK  230  A    between atoms: _556  and  _557
REMARK  231  A    between atoms: _557  and  _558
REMARK  232  A    between atoms: _567  and  _569
REMARK  233  A    between atoms: _569  and  _570
REMARK  234  A    between atoms: _569  and  _572
REMARK  235  A    between atoms: _572  and  _573
REMARK                            x       y       z     vdW  Elec       q    Type
REMARK                         _______ _______ _______ _____ _____    ______ ____
ROOT
ATOM      1  O   HOH     1      11.250  22.847  16.045  0.00  0.00    +0.000 OA
ENDROOT
TORSDOF 0
REMARK  Name = ../refined-set-2016/3nu9/3nu9_pocket.pdb
REMARK  235 active torsions:
REMARK  status: ('A' for Active; 'I' for Inactive)
REMARK    1  A    between atoms: _1  and  _3
REMARK    2  A    between atoms: _3  and  _4
REMARK    3  A    between atoms: _3  and  _6
REMARK    4  A    between atoms: _6  and  _7
REMARK    5  A    between atoms: _7  and  _8
REMARK    6  A    between atoms: _8  and  _9
REMARK    7  A    between atoms: _18  and  _20
REMARK    8  A    between atoms: _20  and  _21
REMARK    9  A    between atoms: _20  and  _23
REMARK   10  A    between atoms: _23  and  _24
REMARK   11  A    between atoms: _27  and  _29
REMARK   12  A    between atoms: _29  and  _30
REMARK   13  A    between atoms: _29  and  _32
REMARK   14  A    between atoms: _32  and  _33
REMARK   15  A    between atoms: _36  and  _38
REMARK   16  A    between atoms: _38  and  _39
REMARK   17  A    between atoms: _38  and  _41
REMARK   18  A    between atoms: _41  and  _42
REMARK   19  A    between atoms: _45  and  _47
REMARK   20  A    between atoms: _47  and  _48
REMARK   21  A    between atoms: _47  and  _50
REMARK   22  A    between atoms: _50  and  _51
REMARK   23  A    between atoms: _54  and  _56
REMARK   24  A    between atoms: _56  and  _57
REMARK   25  A    between atoms: _59  and  _61
REMARK   26  A    between atoms: _61  and  _62
REMARK   27  A    between atoms: _65  and  _67
REMARK   28  A    between atoms: _67  and  _68
REMARK   29  A    between atoms: _67  and  _70
REMARK   30  A    between atoms: _70  and  _71
REMARK   31  A    between atoms: _74  and  _76
REMARK   32  A    between atoms: _76  and  _77
REMARK   33  A    between atoms: _76  and  _79
REMARK   34  A    between atoms: _79  and  _80
REMARK   35  A    between atoms: _83  and  _85
REMARK   36  A    between atoms: _85  and  _86
REMARK   37  A    between atoms: _85  and  _88
REMARK   38  A    between atoms: _88  and  _89
REMARK   39  A    between atoms: _92  and  _94
REMARK   40  A    between atoms: _94  and  _95
REMARK   41  A    between atoms: _94  and  _97
REMARK   42  A    between atoms: _100  and  _102
REMARK   43  A    between atoms: _102  and  _103
REMARK   44  A    between atoms: _102  and  _105
REMARK   45  A    between atoms: _105  and  _106
REMARK   46  A    between atoms: _109  and  _111
REMARK   47  A    between atoms: _111  and  _112
REMARK   48  A    between atoms: _111  and  _114
REMARK   49  A    between atoms: _114  and  _115
REMARK   50  A    between atoms: _115  and  _116
REMARK   51  A    between atoms: _116  and  _117
REMARK   52  A    between atoms: _117  and  _118
REMARK   53  A    between atoms: _122  and  _124
REMARK   54  A    between atoms: _124  and  _125
REMARK   55  A    between atoms: _124  and  _127
REMARK   56  A    between atoms: _127  and  _128
REMARK   57  A    between atoms: _128  and  _129
REMARK   58  A    between atoms: _131  and  _133
REMARK   59  A    between atoms: _133  and  _134
REMARK   60  A    between atoms: _133  and  _136
REMARK   61  A    between atoms: _136  and  _137
REMARK   62  A    between atoms: _140  and  _142
REMARK   63  A    between atoms: _142  and  _143
REMARK   64  A    between atoms: _145  and  _147
REMARK   65  A    between atoms: _147  and  _148
REMARK   66  A    between atoms: _150  and  _152
REMARK   67  A    between atoms: _152  and  _153
REMARK   68  A    between atoms: _152  and  _155
REMARK   69  A    between atoms: _155  and  _156
REMARK   70  A    between atoms: _159  and  _161
REMARK   71  A    between atoms: _161  and  _162
REMARK   72  A    between atoms: _164  and  _166
REMARK   73  A    between atoms: _166  and  _167
REMARK   74  A    between atoms: _169  and  _171
REMARK   75  A    between atoms: _171  and  _172
REMARK   76  A    between atoms: _171  and  _174
REMARK   77  A    between atoms: _174  and  _175
REMARK   78  A    between atoms: _181  and  _183
REMARK   79  A    between atoms: _183  and  _184
REMARK   80  A    between atoms: _183  and  _186
REMARK   81  A    between atoms: _186  and  _187
REMARK   82  A    between atoms: _190  and  _192
REMARK   83  A    between atoms: _192  and  _193
REMARK   84  A    between atoms: _192  and  _195
REMARK   85  A    between atoms: _198  and  _200
REMARK   86  A    between atoms: _200  and  _201
REMARK   87  A    between atoms: _200  and  _203
REMARK   88  A    between atoms: _203  and  _204
REMARK   89  A    between atoms: _208  and  _209
REMARK   90  A    between atoms: _214  and  _216
REMARK   91  A    between atoms: _216  and  _217
REMARK   92  A    between atoms: _216  and  _219
REMARK   93  A    between atoms: _219  and  _220
REMARK   94  A    between atoms: _224  and  _225
REMARK   95  A    between atoms: _230  and  _232
REMARK   96  A    between atoms: _232  and  _233
REMARK   97  A    between atoms: _232  and  _235
REMARK   98  A    between atoms: _238  and  _240
REMARK   99  A    between atoms: _240  and  _241
REMARK  100  A    between atoms: _240  and  _243
REMARK  101  A    between atoms: _243  and  _244
REMARK  102  A    between atoms: _249  and  _251
REMARK  103  A    between atoms: _251  and  _252
REMARK  104  A    between atoms: _251  and  _254
REMARK  105  A    between atoms: _257  and  _259
REMARK  106  A    between atoms: _259  and  _260
REMARK  107  A    between atoms: _259  and  _262
REMARK  108  A    between atoms: _262  and  _263
REMARK  109  A    between atoms: _266  and  _268
REMARK  110  A    between atoms: _268  and  _269
REMARK  111  A    between atoms: _271  and  _273
REMARK  112  A    between atoms: _273  and  _274
REMARK  113  A    between atoms: _273  and  _276
REMARK  114  A    between atoms: _276  and  _277
REMARK  115  A    between atoms: _277  and  _278
REMARK  116  A    between atoms: _278  and  _279
REMARK  117  A    between atoms: _288  and  _290
REMARK  118  A    between atoms: _290  and  _291
REMARK  119  A    between atoms: _290  and  _293
REMARK  120  A    between atoms: _293  and  _294
REMARK  121  A    between atoms: _299  and  _301
REMARK  122  A    between atoms: _301  and  _302
REMARK  123  A    between atoms: _301  and  _304
REMARK  124  A    between atoms: _304  and  _305
REMARK  125  A    between atoms: _305  and  _306
REMARK  126  A    between atoms: _306  and  _307
REMARK  127  A    between atoms: _316  and  _318
REMARK  128  A    between atoms: _318  and  _319
REMARK  129  A    between atoms: _318  and  _321
REMARK  130  A    between atoms: _321  and  _322
REMARK  131  A    between atoms: _325  and  _327
REMARK  132  A    between atoms: _327  and  _328
REMARK  133  A    between atoms: _327  and  _330
REMARK  134  A    between atoms: _330  and  _331
REMARK  135  A    between atoms: _334  and  _336
REMARK  136  A    between atoms: _336  and  _337
REMARK  137  A    between atoms: _336  and  _339
REMARK  138  A    between atoms: _339  and  _340
REMARK  139  A    between atoms: _343  and  _345
REMARK  140  A    between atoms: _345  and  _346
REMARK  141  A    between atoms: _345  and  _348
REMARK  142  A    between atoms: _348  and  _349
REMARK  143  A    between atoms: _352  and  _354
REMARK  144  A    between atoms: _354  and  _355
REMARK  145  A    between atoms: _357  and  _359
REMARK  146  A    between atoms: _359  and  _360
REMARK  147  A    between atoms: _363  and  _365
REMARK  148  A    between atoms: _365  and  _366
REMARK  149  A    between atoms: _365  and  _368
REMARK  150  A    between atoms: _368  and  _369
REMARK  151  A    between atoms: _372  and  _374
REMARK  152  A    between atoms: _374  and  _375
REMARK  153  A    between atoms: _374  and  _377
REMARK  154  A    between atoms: _377  and  _378
REMARK  155  A    between atoms: _381  and  _383
REMARK  156  A    between atoms: _383  and  _384
REMARK  157  A    between atoms: _383  and  _386
REMARK  158  A    between atoms: _386  and  _387
REMARK  159  A    between atoms: _390  and  _392
REMARK  160  A    between atoms: _392  and  _393
REMARK  161  A    between atoms: _392  and  _395
REMARK  162  A    between atoms: _398  and  _400
REMARK  163  A    between atoms: _400  and  _401
REMARK  164  A    between atoms: _400  and  _403
REMARK  165  A    between atoms: _403  and  _404
REMARK  166  A    between atoms: _407  and  _409
REMARK  167  A    between atoms: _409  and  _410
REMARK  168  A    between atoms: _409  and  _412
REMARK  169  A    between atoms: _412  and  _413
REMARK  170  A    between atoms: _413  and  _414
REMARK  171  A    between atoms: _414  and  _415
REMARK  172  A    between atoms: _415  and  _416
REMARK  173  A    between atoms: _420  and  _422
REMARK  174  A    between atoms: _422  and  _423
REMARK  175  A    between atoms: _422  and  _425
REMARK  176  A    between atoms: _425  and  _426
REMARK  177  A    between atoms: _426  and  _427
REMARK  178  A    between atoms: _429  and  _431
REMARK  179  A    between atoms: _431  and  _432
REMARK  180  A    between atoms: _431  and  _434
REMARK  181  A    between atoms: _434  and  _435
REMARK  182  A    between atoms: _438  and  _440
REMARK  183  A    between atoms: _440  and  _441
REMARK  184  A    between atoms: _443  and  _445
REMARK  185  A    between atoms: _445  and  _446
REMARK  186  A    between atoms: _448  and  _450
REMARK  187  A    between atoms: _450  and  _451
REMARK  188  A    between atoms: _450  and  _453
REMARK  189  A    between atoms: _453  and  _454
REMARK  190  A    between atoms: _457  and  _459
REMARK  191  A    between atoms: _459  and  _460
REMARK  192  A    between atoms: _462  and  _464
REMARK  193  A    between atoms: _464  and  _465
REMARK  194  A    between atoms: _467  and  _469
REMARK  195  A    between atoms: _469  and  _470
REMARK  196  A    between atoms: _469  and  _472
REMARK  197  A    between atoms: _472  and  _473
REMARK  198  A    between atoms: _476  and  _478
REMARK  199  A    between atoms: _478  and  _479
REMARK  200  A    between atoms: _478  and  _481
REMARK  201  A    between atoms: _484  and  _486
REMARK  202  A    between atoms: _486  and  _487
REMARK  203  A    between atoms: _486  and  _489
REMARK  204  A    between atoms: _489  and  _490
REMARK  205  A    between atoms: _493  and  _495
REMARK  206  A    between atoms: _495  and  _496
REMARK  207  A    between atoms: _495  and  _498
REMARK  208  A    between atoms: _498  and  _499
REMARK  209  A    between atoms: _503  and  _504
REMARK  210  A    between atoms: _509  and  _511
REMARK  211  A    between atoms: _511  and  _512
REMARK  212  A    between atoms: _511  and  _514
REMARK  213  A    between atoms: _517  and  _519
REMARK  214  A    between atoms: _519  and  _520
REMARK  215  A    between atoms: _519  and  _522
REMARK  216  A    between atoms: _522  and  _523
REMARK  217  A    between atoms: _528  and  _530
REMARK  218  A    between atoms: _530  and  _531
REMARK  219  A    between atoms: _530  and  _533
REMARK  220  A    between atoms: _536  and  _538
REMARK  221  A    between atoms: _538  and  _539
REMARK  222  A    between atoms: _538  and  _541
REMARK  223  A    between atoms: _541  and  _542
REMARK  224  A    between atoms: _545  and  _547
REMARK  225  A    between atoms: _547  and  _548
REMARK  226  A    between atoms: _550  and  _552
REMARK  227  A    between atoms: _552  and  _553
REMARK  228  A    between atoms: _552  and  _555
REMARK  229  A    between atoms: _555  and  _556
REMARK  230  A    between atoms: _556  and  _557
REMARK  231  A    between atoms: _557  and  _558
REMARK  232  A    between atoms: _567  and  _569
REMARK  233  A    between atoms: _569  and  _570
REMARK  234  A    between atoms: _569  and  _572
REMARK  235  A    between atoms: _572  and  _573
REMARK                            x       y       z     vdW  Elec       q    Type
REMARK                         _______ _______ _______ _____ _____    ______ ____
ROOT
ATOM      1  O   HOH     1       5.521  16.025  24.925  0.00  0.00    +0.000 OA
ENDROOT
TORSDOF 0
REMARK  Name = ../refined-set-2016/3nu9/3nu9_pocket.pdb
REMARK  235 active torsions:
REMARK  status: ('A' for Active; 'I' for Inactive)
REMARK    1  A    between atoms: _1  and  _3
REMARK    2  A    between atoms: _3  and  _4
REMARK    3  A    between atoms: _3  and  _6
REMARK    4  A    between atoms: _6  and  _7
REMARK    5  A    between atoms: _7  and  _8
REMARK    6  A    between atoms: _8  and  _9
REMARK    7  A    between atoms: _18  and  _20
REMARK    8  A    between atoms: _20  and  _21
REMARK    9  A    between atoms: _20  and  _23
REMARK   10  A    between atoms: _23  and  _24
REMARK   11  A    between atoms: _27  and  _29
REMARK   12  A    between atoms: _29  and  _30
REMARK   13  A    between atoms: _29  and  _32
REMARK   14  A    between atoms: _32  and  _33
REMARK   15  A    between atoms: _36  and  _38
REMARK   16  A    between atoms: _38  and  _39
REMARK   17  A    between atoms: _38  and  _41
REMARK   18  A    between atoms: _41  and  _42
REMARK   19  A    between atoms: _45  and  _47
REMARK   20  A    between atoms: _47  and  _48
REMARK   21  A    between atoms: _47  and  _50
REMARK   22  A    between atoms: _50  and  _51
REMARK   23  A    between atoms: _54  and  _56
REMARK   24  A    between atoms: _56  and  _57
REMARK   25  A    between atoms: _59  and  _61
REMARK   26  A    between atoms: _61  and  _62
REMARK   27  A    between atoms: _65  and  _67
REMARK   28  A    between atoms: _67  and  _68
REMARK   29  A    between atoms: _67  and  _70
REMARK   30  A    between atoms: _70  and  _71
REMARK   31  A    between atoms: _74  and  _76
REMARK   32  A    between atoms: _76  and  _77
REMARK   33  A    between atoms: _76  and  _79
REMARK   34  A    between atoms: _79  and  _80
REMARK   35  A    between atoms: _83  and  _85
REMARK   36  A    between atoms: _85  and  _86
REMARK   37  A    between atoms: _85  and  _88
REMARK   38  A    between atoms: _88  and  _89
REMARK   39  A    between atoms: _92  and  _94
REMARK   40  A    between atoms: _94  and  _95
REMARK   41  A    between atoms: _94  and  _97
REMARK   42  A    between atoms: _100  and  _102
REMARK   43  A    between atoms: _102  and  _103
REMARK   44  A    between atoms: _102  and  _105
REMARK   45  A    between atoms: _105  and  _106
REMARK   46  A    between atoms: _109  and  _111
REMARK   47  A    between atoms: _111  and  _112
REMARK   48  A    between atoms: _111  and  _114
REMARK   49  A    between atoms: _114  and  _115
REMARK   50  A    between atoms: _115  and  _116
REMARK   51  A    between atoms: _116  and  _117
REMARK   52  A    between atoms: _117  and  _118
REMARK   53  A    between atoms: _122  and  _124
REMARK   54  A    between atoms: _124  and  _125
REMARK   55  A    between atoms: _124  and  _127
REMARK   56  A    between atoms: _127  and  _128
REMARK   57  A    between atoms: _128  and  _129
REMARK   58  A    between atoms: _131  and  _133
REMARK   59  A    between atoms: _133  and  _134
REMARK   60  A    between atoms: _133  and  _136
REMARK   61  A    between atoms: _136  and  _137
REMARK   62  A    between atoms: _140  and  _142
REMARK   63  A    between atoms: _142  and  _143
REMARK   64  A    between atoms: _145  and  _147
REMARK   65  A    between atoms: _147  and  _148
REMARK   66  A    between atoms: _150  and  _152
REMARK   67  A    between atoms: _152  and  _153
REMARK   68  A    between atoms: _152  and  _155
REMARK   69  A    between atoms: _155  and  _156
REMARK   70  A    between atoms: _159  and  _161
REMARK   71  A    between atoms: _161  and  _162
REMARK   72  A    between atoms: _164  and  _166
REMARK   73  A    between atoms: _166  and  _167
REMARK   74  A    between atoms: _169  and  _171
REMARK   75  A    between atoms: _171  and  _172
REMARK   76  A    between atoms: _171  and  _174
REMARK   77  A    between atoms: _174  and  _175
REMARK   78  A    between atoms: _181  and  _183
REMARK   79  A    between atoms: _183  and  _184
REMARK   80  A    between atoms: _183  and  _186
REMARK   81  A    between atoms: _186  and  _187
REMARK   82  A    between atoms: _190  and  _192
REMARK   83  A    between atoms: _192  and  _193
REMARK   84  A    between atoms: _192  and  _195
REMARK   85  A    between atoms: _198  and  _200
REMARK   86  A    between atoms: _200  and  _201
REMARK   87  A    between atoms: _200  and  _203
REMARK   88  A    between atoms: _203  and  _204
REMARK   89  A    between atoms: _208  and  _209
REMARK   90  A    between atoms: _214  and  _216
REMARK   91  A    between atoms: _216  and  _217
REMARK   92  A    between atoms: _216  and  _219
REMARK   93  A    between atoms: _219  and  _220
REMARK   94  A    between atoms: _224  and  _225
REMARK   95  A    between atoms: _230  and  _232
REMARK   96  A    between atoms: _232  and  _233
REMARK   97  A    between atoms: _232  and  _235
REMARK   98  A    between atoms: _238  and  _240
REMARK   99  A    between atoms: _240  and  _241
REMARK  100  A    between atoms: _240  and  _243
REMARK  101  A    between atoms: _243  and  _244
REMARK  102  A    between atoms: _249  and  _251
REMARK  103  A    between atoms: _251  and  _252
REMARK  104  A    between atoms: _251  and  _254
REMARK  105  A    between atoms: _257  and  _259
REMARK  106  A    between atoms: _259  and  _260
REMARK  107  A    between atoms: _259  and  _262
REMARK  108  A    between atoms: _262  and  _263
REMARK  109  A    between atoms: _266  and  _268
REMARK  110  A    between atoms: _268  and  _269
REMARK  111  A    between atoms: _271  and  _273
REMARK  112  A    between atoms: _273  and  _274
REMARK  113  A    between atoms: _273  and  _276
REMARK  114  A    between atoms: _276  and  _277
REMARK  115  A    between atoms: _277  and  _278
REMARK  116  A    between atoms: _278  and  _279
REMARK  117  A    between atoms: _288  and  _290
REMARK  118  A    between atoms: _290  and  _291
REMARK  119  A    between atoms: _290  and  _293
REMARK  120  A    between atoms: _293  and  _294
REMARK  121  A    between atoms: _299  and  _301
REMARK  122  A    between atoms: _301  and  _302
REMARK  123  A    between atoms: _301  and  _304
REMARK  124  A    between atoms: _304  and  _305
REMARK  125  A    between atoms: _305  and  _306
REMARK  126  A    between atoms: _306  and  _307
REMARK  127  A    between atoms: _316  and  _318
REMARK  128  A    between atoms: _318  and  _319
REMARK  129  A    between atoms: _318  and  _321
REMARK  130  A    between atoms: _321  and  _322
REMARK  131  A    between atoms: _325  and  _327
REMARK  132  A    between atoms: _327  and  _328
REMARK  133  A    between atoms: _327  and  _330
REMARK  134  A    between atoms: _330  and  _331
REMARK  135  A    between atoms: _334  and  _336
REMARK  136  A    between atoms: _336  and  _337
REMARK  137  A    between atoms: _336  and  _339
REMARK  138  A    between atoms: _339  and  _340
REMARK  139  A    between atoms: _343  and  _345
REMARK  140  A    between atoms: _345  and  _346
REMARK  141  A    between atoms: _345  and  _348
REMARK  142  A    between atoms: _348  and  _349
REMARK  143  A    between atoms: _352  and  _354
REMARK  144  A    between atoms: _354  and  _355
REMARK  145  A    between atoms: _357  and  _359
REMARK  146  A    between atoms: _359  and  _360
REMARK  147  A    between atoms: _363  and  _365
REMARK  148  A    between atoms: _365  and  _366
REMARK  149  A    between atoms: _365  and  _368
REMARK  150  A    between atoms: _368  and  _369
REMARK  151  A    between atoms: _372  and  _374
REMARK  152  A    between atoms: _374  and  _375
REMARK  153  A    between atoms: _374  and  _377
REMARK  154  A    between atoms: _377  and  _378
REMARK  155  A    between atoms: _381  and  _383
REMARK  156  A    between atoms: _383  and  _384
REMARK  157  A    between atoms: _383  and  _386
REMARK  158  A    between atoms: _386  and  _387
REMARK  159  A    between atoms: _390  and  _392
REMARK  160  A    between atoms: _392  and  _393
REMARK  161  A    between atoms: _392  and  _395
REMARK  162  A    between atoms: _398  and  _400
REMARK  163  A    between atoms: _400  and  _401
REMARK  164  A    between atoms: _400  and  _403
REMARK  165  A    between atoms: _403  and  _404
REMARK  166  A    between atoms: _407  and  _409
REMARK  167  A    between atoms: _409  and  _410
REMARK  168  A    between atoms: _409  and  _412
REMARK  169  A    between atoms: _412  and  _413
REMARK  170  A    between atoms: _413  and  _414
REMARK  171  A    between atoms: _414  and  _415
REMARK  172  A    between atoms: _415  and  _416
REMARK  173  A    between atoms: _420  and  _422
REMARK  174  A    between atoms: _422  and  _423
REMARK  175  A    between atoms: _422  and  _425
REMARK  176  A    between atoms: _425  and  _426
REMARK  177  A    between atoms: _426  and  _427
REMARK  178  A    between atoms: _429  and  _431
REMARK  179  A    between atoms: _431  and  _432
REMARK  180  A    between atoms: _431  and  _434
REMARK  181  A    between atoms: _434  and  _435
REMARK  182  A    between atoms: _438  and  _440
REMARK  183  A    between atoms: _440  and  _441
REMARK  184  A    between atoms: _443  and  _445
REMARK  185  A    between atoms: _445  and  _446
REMARK  186  A    between atoms: _448  and  _450
REMARK  187  A    between atoms: _450  and  _451
REMARK  188  A    between atoms: _450  and  _453
REMARK  189  A    between atoms: _453  and  _454
REMARK  190  A    between atoms: _457  and  _459
REMARK  191  A    between atoms: _459  and  _460
REMARK  192  A    between atoms: _462  and  _464
REMARK  193  A    between atoms: _464  and  _465
REMARK  194  A    between atoms: _467  and  _469
REMARK  195  A    between atoms: _469  and  _470
REMARK  196  A    between atoms: _469  and  _472
REMARK  197  A    between atoms: _472  and  _473
REMARK  198  A    between atoms: _476  and  _478
REMARK  199  A    between atoms: _478  and  _479
REMARK  200  A    between atoms: _478  and  _481
REMARK  201  A    between atoms: _484  and  _486
REMARK  202  A    between atoms: _486  and  _487
REMARK  203  A    between atoms: _486  and  _489
REMARK  204  A    between atoms: _489  and  _490
REMARK  205  A    between atoms: _493  and  _495
REMARK  206  A    between atoms: _495  and  _496
REMARK  207  A    between atoms: _495  and  _498
REMARK  208  A    between atoms: _498  and  _499
REMARK  209  A    between atoms: _503  and  _504
REMARK  210  A    between atoms: _509  and  _511
REMARK  211  A    between atoms: _511  and  _512
REMARK  212  A    between atoms: _511  and  _514
REMARK  213  A    between atoms: _517  and  _519
REMARK  214  A    between atoms: _519  and  _520
REMARK  215  A    between atoms: _519  and  _522
REMARK  216  A    between atoms: _522  and  _523
REMARK  217  A    between atoms: _528  and  _530
REMARK  218  A    between atoms: _530  and  _531
REMARK  219  A    between atoms: _530  and  _533
REMARK  220  A    between atoms: _536  and  _538
REMARK  221  A    between atoms: _538  and  _539
REMARK  222  A    between atoms: _538  and  _541
REMARK  223  A    between atoms: _541  and  _542
REMARK  224  A    between atoms: _545  and  _547
REMARK  225  A    between atoms: _547  and  _548
REMARK  226  A    between atoms: _550  and  _552
REMARK  227  A    between atoms: _552  and  _553
REMARK  228  A    between atoms: _552  and  _555
REMARK  229  A    between atoms: _555  and  _556
REMARK  230  A    between atoms: _556  and  _557
REMARK  231  A    between atoms: _557  and  _558
REMARK  232  A    between atoms: _567  and  _569
REMARK  233  A    between atoms: _569  and  _570
REMARK  234  A    between atoms: _569  and  _572
REMARK  235  A    between atoms: _572  and  _573
REMARK                            x       y       z     vdW  Elec       q    Type
REMARK                         _______ _______ _______ _____ _____    ______ ____
ROOT
ATOM      1  O   HOH     1       6.956  27.957  19.329  0.00  0.00    +0.000 OA
ENDROOT
TORSDOF 0
REMARK  Name = ../refined-set-2016/3nu9/3nu9_pocket.pdb
REMARK  235 active torsions:
REMARK  status: ('A' for Active; 'I' for Inactive)
REMARK    1  A    between atoms: _1  and  _3
REMARK    2  A    between atoms: _3  and  _4
REMARK    3  A    between atoms: _3  and  _6
REMARK    4  A    between atoms: _6  and  _7
REMARK    5  A    between atoms: _7  and  _8
REMARK    6  A    between atoms: _8  and  _9
REMARK    7  A    between atoms: _18  and  _20
REMARK    8  A    between atoms: _20  and  _21
REMARK    9  A    between atoms: _20  and  _23
REMARK   10  A    between atoms: _23  and  _24
REMARK   11  A    between atoms: _27  and  _29
REMARK   12  A    between atoms: _29  and  _30
REMARK   13  A    between atoms: _29  and  _32
REMARK   14  A    between atoms: _32  and  _33
REMARK   15  A    between atoms: _36  and  _38
REMARK   16  A    between atoms: _38  and  _39
REMARK   17  A    between atoms: _38  and  _41
REMARK   18  A    between atoms: _41  and  _42
REMARK   19  A    between atoms: _45  and  _47
REMARK   20  A    between atoms: _47  and  _48
REMARK   21  A    between atoms: _47  and  _50
REMARK   22  A    between atoms: _50  and  _51
REMARK   23  A    between atoms: _54  and  _56
REMARK   24  A    between atoms: _56  and  _57
REMARK   25  A    between atoms: _59  and  _61
REMARK   26  A    between atoms: _61  and  _62
REMARK   27  A    between atoms: _65  and  _67
REMARK   28  A    between atoms: _67  and  _68
REMARK   29  A    between atoms: _67  and  _70
REMARK   30  A    between atoms: _70  and  _71
REMARK   31  A    between atoms: _74  and  _76
REMARK   32  A    between atoms: _76  and  _77
REMARK   33  A    between atoms: _76  and  _79
REMARK   34  A    between atoms: _79  and  _80
REMARK   35  A    between atoms: _83  and  _85
REMARK   36  A    between atoms: _85  and  _86
REMARK   37  A    between atoms: _85  and  _88
REMARK   38  A    between atoms: _88  and  _89
REMARK   39  A    between atoms: _92  and  _94
REMARK   40  A    between atoms: _94  and  _95
REMARK   41  A    between atoms: _94  and  _97
REMARK   42  A    between atoms: _100  and  _102
REMARK   43  A    between atoms: _102  and  _103
REMARK   44  A    between atoms: _102  and  _105
REMARK   45  A    between atoms: _105  and  _106
REMARK   46  A    between atoms: _109  and  _111
REMARK   47  A    between atoms: _111  and  _112
REMARK   48  A    between atoms: _111  and  _114
REMARK   49  A    between atoms: _114  and  _115
REMARK   50  A    between atoms: _115  and  _116
REMARK   51  A    between atoms: _116  and  _117
REMARK   52  A    between atoms: _117  and  _118
REMARK   53  A    between atoms: _122  and  _124
REMARK   54  A    between atoms: _124  and  _125
REMARK   55  A    between atoms: _124  and  _127
REMARK   56  A    between atoms: _127  and  _128
REMARK   57  A    between atoms: _128  and  _129
REMARK   58  A    between atoms: _131  and  _133
REMARK   59  A    between atoms: _133  and  _134
REMARK   60  A    between atoms: _133  and  _136
REMARK   61  A    between atoms: _136  and  _137
REMARK   62  A    between atoms: _140  and  _142
REMARK   63  A    between atoms: _142  and  _143
REMARK   64  A    between atoms: _145  and  _147
REMARK   65  A    between atoms: _147  and  _148
REMARK   66  A    between atoms: _150  and  _152
REMARK   67  A    between atoms: _152  and  _153
REMARK   68  A    between atoms: _152  and  _155
REMARK   69  A    between atoms: _155  and  _156
REMARK   70  A    between atoms: _159  and  _161
REMARK   71  A    between atoms: _161  and  _162
REMARK   72  A    between atoms: _164  and  _166
REMARK   73  A    between atoms: _166  and  _167
REMARK   74  A    between atoms: _169  and  _171
REMARK   75  A    between atoms: _171  and  _172
REMARK   76  A    between atoms: _171  and  _174
REMARK   77  A    between atoms: _174  and  _175
REMARK   78  A    between atoms: _181  and  _183
REMARK   79  A    between atoms: _183  and  _184
REMARK   80  A    between atoms: _183  and  _186
REMARK   81  A    between atoms: _186  and  _187
REMARK   82  A    between atoms: _190  and  _192
REMARK   83  A    between atoms: _192  and  _193
REMARK   84  A    between atoms: _192  and  _195
REMARK   85  A    between atoms: _198  and  _200
REMARK   86  A    between atoms: _200  and  _201
REMARK   87  A    between atoms: _200  and  _203
REMARK   88  A    between atoms: _203  and  _204
REMARK   89  A    between atoms: _208  and  _209
REMARK   90  A    between atoms: _214  and  _216
REMARK   91  A    between atoms: _216  and  _217
REMARK   92  A    between atoms: _216  and  _219
REMARK   93  A    between atoms: _219  and  _220
REMARK   94  A    between atoms: _224  and  _225
REMARK   95  A    between atoms: _230  and  _232
REMARK   96  A    between atoms: _232  and  _233
REMARK   97  A    between atoms: _232  and  _235
REMARK   98  A    between atoms: _238  and  _240
REMARK   99  A    between atoms: _240  and  _241
REMARK  100  A    between atoms: _240  and  _243
REMARK  101  A    between atoms: _243  and  _244
REMARK  102  A    between atoms: _249  and  _251
REMARK  103  A    between atoms: _251  and  _252
REMARK  104  A    between atoms: _251  and  _254
REMARK  105  A    between atoms: _257  and  _259
REMARK  106  A    between atoms: _259  and  _260
REMARK  107  A    between atoms: _259  and  _262
REMARK  108  A    between atoms: _262  and  _263
REMARK  109  A    between atoms: _266  and  _268
REMARK  110  A    between atoms: _268  and  _269
REMARK  111  A    between atoms: _271  and  _273
REMARK  112  A    between atoms: _273  and  _274
REMARK  113  A    between atoms: _273  and  _276
REMARK  114  A    between atoms: _276  and  _277
REMARK  115  A    between atoms: _277  and  _278
REMARK  116  A    between atoms: _278  and  _279
REMARK  117  A    between atoms: _288  and  _290
REMARK  118  A    between atoms: _290  and  _291
REMARK  119  A    between atoms: _290  and  _293
REMARK  120  A    between atoms: _293  and  _294
REMARK  121  A    between atoms: _299  and  _301
REMARK  122  A    between atoms: _301  and  _302
REMARK  123  A    between atoms: _301  and  _304
REMARK  124  A    between atoms: _304  and  _305
REMARK  125  A    between atoms: _305  and  _306
REMARK  126  A    between atoms: _306  and  _307
REMARK  127  A    between atoms: _316  and  _318
REMARK  128  A    between atoms: _318  and  _319
REMARK  129  A    between atoms: _318  and  _321
REMARK  130  A    between atoms: _321  and  _322
REMARK  131  A    between atoms: _325  and  _327
REMARK  132  A    between atoms: _327  and  _328
REMARK  133  A    between atoms: _327  and  _330
REMARK  134  A    between atoms: _330  and  _331
REMARK  135  A    between atoms: _334  and  _336
REMARK  136  A    between atoms: _336  and  _337
REMARK  137  A    between atoms: _336  and  _339
REMARK  138  A    between atoms: _339  and  _340
REMARK  139  A    between atoms: _343  and  _345
REMARK  140  A    between atoms: _345  and  _346
REMARK  141  A    between atoms: _345  and  _348
REMARK  142  A    between atoms: _348  and  _349
REMARK  143  A    between atoms: _352  and  _354
REMARK  144  A    between atoms: _354  and  _355
REMARK  145  A    between atoms: _357  and  _359
REMARK  146  A    between atoms: _359  and  _360
REMARK  147  A    between atoms: _363  and  _365
REMARK  148  A    between atoms: _365  and  _366
REMARK  149  A    between atoms: _365  and  _368
REMARK  150  A    between atoms: _368  and  _369
REMARK  151  A    between atoms: _372  and  _374
REMARK  152  A    between atoms: _374  and  _375
REMARK  153  A    between atoms: _374  and  _377
REMARK  154  A    between atoms: _377  and  _378
REMARK  155  A    between atoms: _381  and  _383
REMARK  156  A    between atoms: _383  and  _384
REMARK  157  A    between atoms: _383  and  _386
REMARK  158  A    between atoms: _386  and  _387
REMARK  159  A    between atoms: _390  and  _392
REMARK  160  A    between atoms: _392  and  _393
REMARK  161  A    between atoms: _392  and  _395
REMARK  162  A    between atoms: _398  and  _400
REMARK  163  A    between atoms: _400  and  _401
REMARK  164  A    between atoms: _400  and  _403
REMARK  165  A    between atoms: _403  and  _404
REMARK  166  A    between atoms: _407  and  _409
REMARK  167  A    between atoms: _409  and  _410
REMARK  168  A    between atoms: _409  and  _412
REMARK  169  A    between atoms: _412  and  _413
REMARK  170  A    between atoms: _413  and  _414
REMARK  171  A    between atoms: _414  and  _415
REMARK  172  A    between atoms: _415  and  _416
REMARK  173  A    between atoms: _420  and  _422
REMARK  174  A    between atoms: _422  and  _423
REMARK  175  A    between atoms: _422  and  _425
REMARK  176  A    between atoms: _425  and  _426
REMARK  177  A    between atoms: _426  and  _427
REMARK  178  A    between atoms: _429  and  _431
REMARK  179  A    between atoms: _431  and  _432
REMARK  180  A    between atoms: _431  and  _434
REMARK  181  A    between atoms: _434  and  _435
REMARK  182  A    between atoms: _438  and  _440
REMARK  183  A    between atoms: _440  and  _441
REMARK  184  A    between atoms: _443  and  _445
REMARK  185  A    between atoms: _445  and  _446
REMARK  186  A    between atoms: _448  and  _450
REMARK  187  A    between atoms: _450  and  _451
REMARK  188  A    between atoms: _450  and  _453
REMARK  189  A    between atoms: _453  and  _454
REMARK  190  A    between atoms: _457  and  _459
REMARK  191  A    between atoms: _459  and  _460
REMARK  192  A    between atoms: _462  and  _464
REMARK  193  A    between atoms: _464  and  _465
REMARK  194  A    between atoms: _467  and  _469
REMARK  195  A    between atoms: _469  and  _470
REMARK  196  A    between atoms: _469  and  _472
REMARK  197  A    between atoms: _472  and  _473
REMARK  198  A    between atoms: _476  and  _478
REMARK  199  A    between atoms: _478  and  _479
REMARK  200  A    between atoms: _478  and  _481
REMARK  201  A    between atoms: _484  and  _486
REMARK  202  A    between atoms: _486  and  _487
REMARK  203  A    between atoms: _486  and  _489
REMARK  204  A    between atoms: _489  and  _490
REMARK  205  A    between atoms: _493  and  _495
REMARK  206  A    between atoms: _495  and  _496
REMARK  207  A    between atoms: _495  and  _498
REMARK  208  A    between atoms: _498  and  _499
REMARK  209  A    between atoms: _503  and  _504
REMARK  210  A    between atoms: _509  and  _511
REMARK  211  A    between atoms: _511  and  _512
REMARK  212  A    between atoms: _511  and  _514
REMARK  213  A    between atoms: _517  and  _519
REMARK  214  A    between atoms: _519  and  _520
REMARK  215  A    between atoms: _519  and  _522
REMARK  216  A    between atoms: _522  and  _523
REMARK  217  A    between atoms: _528  and  _530
REMARK  218  A    between atoms: _530  and  _531
REMARK  219  A    between atoms: _530  and  _533
REMARK  220  A    between atoms: _536  and  _538
REMARK  221  A    between atoms: _538  and  _539
REMARK  222  A    between atoms: _538  and  _541
REMARK  223  A    between atoms: _541  and  _542
REMARK  224  A    between atoms: _545  and  _547
REMARK  225  A    between atoms: _547  and  _548
REMARK  226  A    between atoms: _550  and  _552
REMARK  227  A    between atoms: _552  and  _553
REMARK  228  A    between atoms: _552  and  _555
REMARK  229  A    between atoms: _555  and  _556
REMARK  230  A    between atoms: _556  and  _557
REMARK  231  A    between atoms: _557  and  _558
REMARK  232  A    between atoms: _567  and  _569
REMARK  233  A    between atoms: _569  and  _570
REMARK  234  A    between atoms: _569  and  _572
REMARK  235  A    between atoms: _572  and  _573
REMARK                            x       y       z     vdW  Elec       q    Type
REMARK                         _______ _______ _______ _____ _____    ______ ____
ROOT
ATOM      1  O   HOH     1      20.240  27.351  25.741  0.00  0.00    +0.000 OA
ENDROOT
TORSDOF 0
REMARK  Name = ../refined-set-2016/3nu9/3nu9_pocket.pdb
REMARK  235 active torsions:
REMARK  status: ('A' for Active; 'I' for Inactive)
REMARK    1  A    between atoms: _1  and  _3
REMARK    2  A    between atoms: _3  and  _4
REMARK    3  A    between atoms: _3  and  _6
REMARK    4  A    between atoms: _6  and  _7
REMARK    5  A    between atoms: _7  and  _8
REMARK    6  A    between atoms: _8  and  _9
REMARK    7  A    between atoms: _18  and  _20
REMARK    8  A    between atoms: _20  and  _21
REMARK    9  A    between atoms: _20  and  _23
REMARK   10  A    between atoms: _23  and  _24
REMARK   11  A    between atoms: _27  and  _29
REMARK   12  A    between atoms: _29  and  _30
REMARK   13  A    between atoms: _29  and  _32
REMARK   14  A    between atoms: _32  and  _33
REMARK   15  A    between atoms: _36  and  _38
REMARK   16  A    between atoms: _38  and  _39
REMARK   17  A    between atoms: _38  and  _41
REMARK   18  A    between atoms: _41  and  _42
REMARK   19  A    between atoms: _45  and  _47
REMARK   20  A    between atoms: _47  and  _48
REMARK   21  A    between atoms: _47  and  _50
REMARK   22  A    between atoms: _50  and  _51
REMARK   23  A    between atoms: _54  and  _56
REMARK   24  A    between atoms: _56  and  _57
REMARK   25  A    between atoms: _59  and  _61
REMARK   26  A    between atoms: _61  and  _62
REMARK   27  A    between atoms: _65  and  _67
REMARK   28  A    between atoms: _67  and  _68
REMARK   29  A    between atoms: _67  and  _70
REMARK   30  A    between atoms: _70  and  _71
REMARK   31  A    between atoms: _74  and  _76
REMARK   32  A    between atoms: _76  and  _77
REMARK   33  A    between atoms: _76  and  _79
REMARK   34  A    between atoms: _79  and  _80
REMARK   35  A    between atoms: _83  and  _85
REMARK   36  A    between atoms: _85  and  _86
REMARK   37  A    between atoms: _85  and  _88
REMARK   38  A    between atoms: _88  and  _89
REMARK   39  A    between atoms: _92  and  _94
REMARK   40  A    between atoms: _94  and  _95
REMARK   41  A    between atoms: _94  and  _97
REMARK   42  A    between atoms: _100  and  _102
REMARK   43  A    between atoms: _102  and  _103
REMARK   44  A    between atoms: _102  and  _105
REMARK   45  A    between atoms: _105  and  _106
REMARK   46  A    between atoms: _109  and  _111
REMARK   47  A    between atoms: _111  and  _112
REMARK   48  A    between atoms: _111  and  _114
REMARK   49  A    between atoms: _114  and  _115
REMARK   50  A    between atoms: _115  and  _116
REMARK   51  A    between atoms: _116  and  _117
REMARK   52  A    between atoms: _117  and  _118
REMARK   53  A    between atoms: _122  and  _124
REMARK   54  A    between atoms: _124  and  _125
REMARK   55  A    between atoms: _124  and  _127
REMARK   56  A    between atoms: _127  and  _128
REMARK   57  A    between atoms: _128  and  _129
REMARK   58  A    between atoms: _131  and  _133
REMARK   59  A    between atoms: _133  and  _134
REMARK   60  A    between atoms: _133  and  _136
REMARK   61  A    between atoms: _136  and  _137
REMARK   62  A    between atoms: _140  and  _142
REMARK   63  A    between atoms: _142  and  _143
REMARK   64  A    between atoms: _145  and  _147
REMARK   65  A    between atoms: _147  and  _148
REMARK   66  A    between atoms: _150  and  _152
REMARK   67  A    between atoms: _152  and  _153
REMARK   68  A    between atoms: _152  and  _155
REMARK   69  A    between atoms: _155  and  _156
REMARK   70  A    between atoms: _159  and  _161
REMARK   71  A    between atoms: _161  and  _162
REMARK   72  A    between atoms: _164  and  _166
REMARK   73  A    between atoms: _166  and  _167
REMARK   74  A    between atoms: _169  and  _171
REMARK   75  A    between atoms: _171  and  _172
REMARK   76  A    between atoms: _171  and  _174
REMARK   77  A    between atoms: _174  and  _175
REMARK   78  A    between atoms: _181  and  _183
REMARK   79  A    between atoms: _183  and  _184
REMARK   80  A    between atoms: _183  and  _186
REMARK   81  A    between atoms: _186  and  _187
REMARK   82  A    between atoms: _190  and  _192
REMARK   83  A    between atoms: _192  and  _193
REMARK   84  A    between atoms: _192  and  _195
REMARK   85  A    between atoms: _198  and  _200
REMARK   86  A    between atoms: _200  and  _201
REMARK   87  A    between atoms: _200  and  _203
REMARK   88  A    between atoms: _203  and  _204
REMARK   89  A    between atoms: _208  and  _209
REMARK   90  A    between atoms: _214  and  _216
REMARK   91  A    between atoms: _216  and  _217
REMARK   92  A    between atoms: _216  and  _219
REMARK   93  A    between atoms: _219  and  _220
REMARK   94  A    between atoms: _224  and  _225
REMARK   95  A    between atoms: _230  and  _232
REMARK   96  A    between atoms: _232  and  _233
REMARK   97  A    between atoms: _232  and  _235
REMARK   98  A    between atoms: _238  and  _240
REMARK   99  A    between atoms: _240  and  _241
REMARK  100  A    between atoms: _240  and  _243
REMARK  101  A    between atoms: _243  and  _244
REMARK  102  A    between atoms: _249  and  _251
REMARK  103  A    between atoms: _251  and  _252
REMARK  104  A    between atoms: _251  and  _254
REMARK  105  A    between atoms: _257  and  _259
REMARK  106  A    between atoms: _259  and  _260
REMARK  107  A    between atoms: _259  and  _262
REMARK  108  A    between atoms: _262  and  _263
REMARK  109  A    between atoms: _266  and  _268
REMARK  110  A    between atoms: _268  and  _269
REMARK  111  A    between atoms: _271  and  _273
REMARK  112  A    between atoms: _273  and  _274
REMARK  113  A    between atoms: _273  and  _276
REMARK  114  A    between atoms: _276  and  _277
REMARK  115  A    between atoms: _277  and  _278
REMARK  116  A    between atoms: _278  and  _279
REMARK  117  A    between atoms: _288  and  _290
REMARK  118  A    between atoms: _290  and  _291
REMARK  119  A    between atoms: _290  and  _293
REMARK  120  A    between atoms: _293  and  _294
REMARK  121  A    between atoms: _299  and  _301
REMARK  122  A    between atoms: _301  and  _302
REMARK  123  A    between atoms: _301  and  _304
REMARK  124  A    between atoms: _304  and  _305
REMARK  125  A    between atoms: _305  and  _306
REMARK  126  A    between atoms: _306  and  _307
REMARK  127  A    between atoms: _316  and  _318
REMARK  128  A    between atoms: _318  and  _319
REMARK  129  A    between atoms: _318  and  _321
REMARK  130  A    between atoms: _321  and  _322
REMARK  131  A    between atoms: _325  and  _327
REMARK  132  A    between atoms: _327  and  _328
REMARK  133  A    between atoms: _327  and  _330
REMARK  134  A    between atoms: _330  and  _331
REMARK  135  A    between atoms: _334  and  _336
REMARK  136  A    between atoms: _336  and  _337
REMARK  137  A    between atoms: _336  and  _339
REMARK  138  A    between atoms: _339  and  _340
REMARK  139  A    between atoms: _343  and  _345
REMARK  140  A    between atoms: _345  and  _346
REMARK  141  A    between atoms: _345  and  _348
REMARK  142  A    between atoms: _348  and  _349
REMARK  143  A    between atoms: _352  and  _354
REMARK  144  A    between atoms: _354  and  _355
REMARK  145  A    between atoms: _357  and  _359
REMARK  146  A    between atoms: _359  and  _360
REMARK  147  A    between atoms: _363  and  _365
REMARK  148  A    between atoms: _365  and  _366
REMARK  149  A    between atoms: _365  and  _368
REMARK  150  A    between atoms: _368  and  _369
REMARK  151  A    between atoms: _372  and  _374
REMARK  152  A    between atoms: _374  and  _375
REMARK  153  A    between atoms: _374  and  _377
REMARK  154  A    between atoms: _377  and  _378
REMARK  155  A    between atoms: _381  and  _383
REMARK  156  A    between atoms: _383  and  _384
REMARK  157  A    between atoms: _383  and  _386
REMARK  158  A    between atoms: _386  and  _387
REMARK  159  A    between atoms: _390  and  _392
REMARK  160  A    between atoms: _392  and  _393
REMARK  161  A    between atoms: _392  and  _395
REMARK  162  A    between atoms: _398  and  _400
REMARK  163  A    between atoms: _400  and  _401
REMARK  164  A    between atoms: _400  and  _403
REMARK  165  A    between atoms: _403  and  _404
REMARK  166  A    between atoms: _407  and  _409
REMARK  167  A    between atoms: _409  and  _410
REMARK  168  A    between atoms: _409  and  _412
REMARK  169  A    between atoms: _412  and  _413
REMARK  170  A    between atoms: _413  and  _414
REMARK  171  A    between atoms: _414  and  _415
REMARK  172  A    between atoms: _415  and  _416
REMARK  173  A    between atoms: _420  and  _422
REMARK  174  A    between atoms: _422  and  _423
REMARK  175  A    between atoms: _422  and  _425
REMARK  176  A    between atoms: _425  and  _426
REMARK  177  A    between atoms: _426  and  _427
REMARK  178  A    between atoms: _429  and  _431
REMARK  179  A    between atoms: _431  and  _432
REMARK  180  A    between atoms: _431  and  _434
REMARK  181  A    between atoms: _434  and  _435
REMARK  182  A    between atoms: _438  and  _440
REMARK  183  A    between atoms: _440  and  _441
REMARK  184  A    between atoms: _443  and  _445
REMARK  185  A    between atoms: _445  and  _446
REMARK  186  A    between atoms: _448  and  _450
REMARK  187  A    between atoms: _450  and  _451
REMARK  188  A    between atoms: _450  and  _453
REMARK  189  A    between atoms: _453  and  _454
REMARK  190  A    between atoms: _457  and  _459
REMARK  191  A    between atoms: _459  and  _460
REMARK  192  A    between atoms: _462  and  _464
REMARK  193  A    between atoms: _464  and  _465
REMARK  194  A    between atoms: _467  and  _469
REMARK  195  A    between atoms: _469  and  _470
REMARK  196  A    between atoms: _469  and  _472
REMARK  197  A    between atoms: _472  and  _473
REMARK  198  A    between atoms: _476  and  _478
REMARK  199  A    between atoms: _478  and  _479
REMARK  200  A    between atoms: _478  and  _481
REMARK  201  A    between atoms: _484  and  _486
REMARK  202  A    between atoms: _486  and  _487
REMARK  203  A    between atoms: _486  and  _489
REMARK  204  A    between atoms: _489  and  _490
REMARK  205  A    between atoms: _493  and  _495
REMARK  206  A    between atoms: _495  and  _496
REMARK  207  A    between atoms: _495  and  _498
REMARK  208  A    between atoms: _498  and  _499
REMARK  209  A    between atoms: _503  and  _504
REMARK  210  A    between atoms: _509  and  _511
REMARK  211  A    between atoms: _511  and  _512
REMARK  212  A    between atoms: _511  and  _514
REMARK  213  A    between atoms: _517  and  _519
REMARK  214  A    between atoms: _519  and  _520
REMARK  215  A    between atoms: _519  and  _522
REMARK  216  A    between atoms: _522  and  _523
REMARK  217  A    between atoms: _528  and  _530
REMARK  218  A    between atoms: _530  and  _531
REMARK  219  A    between atoms: _530  and  _533
REMARK  220  A    between atoms: _536  and  _538
REMARK  221  A    between atoms: _538  and  _539
REMARK  222  A    between atoms: _538  and  _541
REMARK  223  A    between atoms: _541  and  _542
REMARK  224  A    between atoms: _545  and  _547
REMARK  225  A    between atoms: _547  and  _548
REMARK  226  A    between atoms: _550  and  _552
REMARK  227  A    between atoms: _552  and  _553
REMARK  228  A    between atoms: _552  and  _555
REMARK  229  A    between atoms: _555  and  _556
REMARK  230  A    between atoms: _556  and  _557
REMARK  231  A    between atoms: _557  and  _558
REMARK  232  A    between atoms: _567  and  _569
REMARK  233  A    between atoms: _569  and  _570
REMARK  234  A    between atoms: _569  and  _572
REMARK  235  A    between atoms: _572  and  _573
REMARK                            x       y       z     vdW  Elec       q    Type
REMARK                         _______ _______ _______ _____ _____    ______ ____
ROOT
ATOM      1  O   HOH     1      24.979  24.542  21.875  0.00  0.00    +0.000 OA
ENDROOT
TORSDOF 0
REMARK  Name = ../refined-set-2016/3nu9/3nu9_pocket.pdb
REMARK  235 active torsions:
REMARK  status: ('A' for Active; 'I' for Inactive)
REMARK    1  A    between atoms: _1  and  _3
REMARK    2  A    between atoms: _3  and  _4
REMARK    3  A    between atoms: _3  and  _6
REMARK    4  A    between atoms: _6  and  _7
REMARK    5  A    between atoms: _7  and  _8
REMARK    6  A    between atoms: _8  and  _9
REMARK    7  A    between atoms: _18  and  _20
REMARK    8  A    between atoms: _20  and  _21
REMARK    9  A    between atoms: _20  and  _23
REMARK   10  A    between atoms: _23  and  _24
REMARK   11  A    between atoms: _27  and  _29
REMARK   12  A    between atoms: _29  and  _30
REMARK   13  A    between atoms: _29  and  _32
REMARK   14  A    between atoms: _32  and  _33
REMARK   15  A    between atoms: _36  and  _38
REMARK   16  A    between atoms: _38  and  _39
REMARK   17  A    between atoms: _38  and  _41
REMARK   18  A    between atoms: _41  and  _42
REMARK   19  A    between atoms: _45  and  _47
REMARK   20  A    between atoms: _47  and  _48
REMARK   21  A    between atoms: _47  and  _50
REMARK   22  A    between atoms: _50  and  _51
REMARK   23  A    between atoms: _54  and  _56
REMARK   24  A    between atoms: _56  and  _57
REMARK   25  A    between atoms: _59  and  _61
REMARK   26  A    between atoms: _61  and  _62
REMARK   27  A    between atoms: _65  and  _67
REMARK   28  A    between atoms: _67  and  _68
REMARK   29  A    between atoms: _67  and  _70
REMARK   30  A    between atoms: _70  and  _71
REMARK   31  A    between atoms: _74  and  _76
REMARK   32  A    between atoms: _76  and  _77
REMARK   33  A    between atoms: _76  and  _79
REMARK   34  A    between atoms: _79  and  _80
REMARK   35  A    between atoms: _83  and  _85
REMARK   36  A    between atoms: _85  and  _86
REMARK   37  A    between atoms: _85  and  _88
REMARK   38  A    between atoms: _88  and  _89
REMARK   39  A    between atoms: _92  and  _94
REMARK   40  A    between atoms: _94  and  _95
REMARK   41  A    between atoms: _94  and  _97
REMARK   42  A    between atoms: _100  and  _102
REMARK   43  A    between atoms: _102  and  _103
REMARK   44  A    between atoms: _102  and  _105
REMARK   45  A    between atoms: _105  and  _106
REMARK   46  A    between atoms: _109  and  _111
REMARK   47  A    between atoms: _111  and  _112
REMARK   48  A    between atoms: _111  and  _114
REMARK   49  A    between atoms: _114  and  _115
REMARK   50  A    between atoms: _115  and  _116
REMARK   51  A    between atoms: _116  and  _117
REMARK   52  A    between atoms: _117  and  _118
REMARK   53  A    between atoms: _122  and  _124
REMARK   54  A    between atoms: _124  and  _125
REMARK   55  A    between atoms: _124  and  _127
REMARK   56  A    between atoms: _127  and  _128
REMARK   57  A    between atoms: _128  and  _129
REMARK   58  A    between atoms: _131  and  _133
REMARK   59  A    between atoms: _133  and  _134
REMARK   60  A    between atoms: _133  and  _136
REMARK   61  A    between atoms: _136  and  _137
REMARK   62  A    between atoms: _140  and  _142
REMARK   63  A    between atoms: _142  and  _143
REMARK   64  A    between atoms: _145  and  _147
REMARK   65  A    between atoms: _147  and  _148
REMARK   66  A    between atoms: _150  and  _152
REMARK   67  A    between atoms: _152  and  _153
REMARK   68  A    between atoms: _152  and  _155
REMARK   69  A    between atoms: _155  and  _156
REMARK   70  A    between atoms: _159  and  _161
REMARK   71  A    between atoms: _161  and  _162
REMARK   72  A    between atoms: _164  and  _166
REMARK   73  A    between atoms: _166  and  _167
REMARK   74  A    between atoms: _169  and  _171
REMARK   75  A    between atoms: _171  and  _172
REMARK   76  A    between atoms: _171  and  _174
REMARK   77  A    between atoms: _174  and  _175
REMARK   78  A    between atoms: _181  and  _183
REMARK   79  A    between atoms: _183  and  _184
REMARK   80  A    between atoms: _183  and  _186
REMARK   81  A    between atoms: _186  and  _187
REMARK   82  A    between atoms: _190  and  _192
REMARK   83  A    between atoms: _192  and  _193
REMARK   84  A    between atoms: _192  and  _195
REMARK   85  A    between atoms: _198  and  _200
REMARK   86  A    between atoms: _200  and  _201
REMARK   87  A    between atoms: _200  and  _203
REMARK   88  A    between atoms: _203  and  _204
REMARK   89  A    between atoms: _208  and  _209
REMARK   90  A    between atoms: _214  and  _216
REMARK   91  A    between atoms: _216  and  _217
REMARK   92  A    between atoms: _216  and  _219
REMARK   93  A    between atoms: _219  and  _220
REMARK   94  A    between atoms: _224  and  _225
REMARK   95  A    between atoms: _230  and  _232
REMARK   96  A    between atoms: _232  and  _233
REMARK   97  A    between atoms: _232  and  _235
REMARK   98  A    between atoms: _238  and  _240
REMARK   99  A    between atoms: _240  and  _241
REMARK  100  A    between atoms: _240  and  _243
REMARK  101  A    between atoms: _243  and  _244
REMARK  102  A    between atoms: _249  and  _251
REMARK  103  A    between atoms: _251  and  _252
REMARK  104  A    between atoms: _251  and  _254
REMARK  105  A    between atoms: _257  and  _259
REMARK  106  A    between atoms: _259  and  _260
REMARK  107  A    between atoms: _259  and  _262
REMARK  108  A    between atoms: _262  and  _263
REMARK  109  A    between atoms: _266  and  _268
REMARK  110  A    between atoms: _268  and  _269
REMARK  111  A    between atoms: _271  and  _273
REMARK  112  A    between atoms: _273  and  _274
REMARK  113  A    between atoms: _273  and  _276
REMARK  114  A    between atoms: _276  and  _277
REMARK  115  A    between atoms: _277  and  _278
REMARK  116  A    between atoms: _278  and  _279
REMARK  117  A    between atoms: _288  and  _290
REMARK  118  A    between atoms: _290  and  _291
REMARK  119  A    between atoms: _290  and  _293
REMARK  120  A    between atoms: _293  and  _294
REMARK  121  A    between atoms: _299  and  _301
REMARK  122  A    between atoms: _301  and  _302
REMARK  123  A    between atoms: _301  and  _304
REMARK  124  A    between atoms: _304  and  _305
REMARK  125  A    between atoms: _305  and  _306
REMARK  126  A    between atoms: _306  and  _307
REMARK  127  A    between atoms: _316  and  _318
REMARK  128  A    between atoms: _318  and  _319
REMARK  129  A    between atoms: _318  and  _321
REMARK  130  A    between atoms: _321  and  _322
REMARK  131  A    between atoms: _325  and  _327
REMARK  132  A    between atoms: _327  and  _328
REMARK  133  A    between atoms: _327  and  _330
REMARK  134  A    between atoms: _330  and  _331
REMARK  135  A    between atoms: _334  and  _336
REMARK  136  A    between atoms: _336  and  _337
REMARK  137  A    between atoms: _336  and  _339
REMARK  138  A    between atoms: _339  and  _340
REMARK  139  A    between atoms: _343  and  _345
REMARK  140  A    between atoms: _345  and  _346
REMARK  141  A    between atoms: _345  and  _348
REMARK  142  A    between atoms: _348  and  _349
REMARK  143  A    between atoms: _352  and  _354
REMARK  144  A    between atoms: _354  and  _355
REMARK  145  A    between atoms: _357  and  _359
REMARK  146  A    between atoms: _359  and  _360
REMARK  147  A    between atoms: _363  and  _365
REMARK  148  A    between atoms: _365  and  _366
REMARK  149  A    between atoms: _365  and  _368
REMARK  150  A    between atoms: _368  and  _369
REMARK  151  A    between atoms: _372  and  _374
REMARK  152  A    between atoms: _374  and  _375
REMARK  153  A    between atoms: _374  and  _377
REMARK  154  A    between atoms: _377  and  _378
REMARK  155  A    between atoms: _381  and  _383
REMARK  156  A    between atoms: _383  and  _384
REMARK  157  A    between atoms: _383  and  _386
REMARK  158  A    between atoms: _386  and  _387
REMARK  159  A    between atoms: _390  and  _392
REMARK  160  A    between atoms: _392  and  _393
REMARK  161  A    between atoms: _392  and  _395
REMARK  162  A    between atoms: _398  and  _400
REMARK  163  A    between atoms: _400  and  _401
REMARK  164  A    between atoms: _400  and  _403
REMARK  165  A    between atoms: _403  and  _404
REMARK  166  A    between atoms: _407  and  _409
REMARK  167  A    between atoms: _409  and  _410
REMARK  168  A    between atoms: _409  and  _412
REMARK  169  A    between atoms: _412  and  _413
REMARK  170  A    between atoms: _413  and  _414
REMARK  171  A    between atoms: _414  and  _415
REMARK  172  A    between atoms: _415  and  _416
REMARK  173  A    between atoms: _420  and  _422
REMARK  174  A    between atoms: _422  and  _423
REMARK  175  A    between atoms: _422  and  _425
REMARK  176  A    between atoms: _425  and  _426
REMARK  177  A    between atoms: _426  and  _427
REMARK  178  A    between atoms: _429  and  _431
REMARK  179  A    between atoms: _431  and  _432
REMARK  180  A    between atoms: _431  and  _434
REMARK  181  A    between atoms: _434  and  _435
REMARK  182  A    between atoms: _438  and  _440
REMARK  183  A    between atoms: _440  and  _441
REMARK  184  A    between atoms: _443  and  _445
REMARK  185  A    between atoms: _445  and  _446
REMARK  186  A    between atoms: _448  and  _450
REMARK  187  A    between atoms: _450  and  _451
REMARK  188  A    between atoms: _450  and  _453
REMARK  189  A    between atoms: _453  and  _454
REMARK  190  A    between atoms: _457  and  _459
REMARK  191  A    between atoms: _459  and  _460
REMARK  192  A    between atoms: _462  and  _464
REMARK  193  A    between atoms: _464  and  _465
REMARK  194  A    between atoms: _467  and  _469
REMARK  195  A    between atoms: _469  and  _470
REMARK  196  A    between atoms: _469  and  _472
REMARK  197  A    between atoms: _472  and  _473
REMARK  198  A    between atoms: _476  and  _478
REMARK  199  A    between atoms: _478  and  _479
REMARK  200  A    between atoms: _478  and  _481
REMARK  201  A    between atoms: _484  and  _486
REMARK  202  A    between atoms: _486  and  _487
REMARK  203  A    between atoms: _486  and  _489
REMARK  204  A    between atoms: _489  and  _490
REMARK  205  A    between atoms: _493  and  _495
REMARK  206  A    between atoms: _495  and  _496
REMARK  207  A    between atoms: _495  and  _498
REMARK  208  A    between atoms: _498  and  _499
REMARK  209  A    between atoms: _503  and  _504
REMARK  210  A    between atoms: _509  and  _511
REMARK  211  A    between atoms: _511  and  _512
REMARK  212  A    between atoms: _511  and  _514
REMARK  213  A    between atoms: _517  and  _519
REMARK  214  A    between atoms: _519  and  _520
REMARK  215  A    between atoms: _519  and  _522
REMARK  216  A    between atoms: _522  and  _523
REMARK  217  A    between atoms: _528  and  _530
REMARK  218  A    between atoms: _530  and  _531
REMARK  219  A    between atoms: _530  and  _533
REMARK  220  A    between atoms: _536  and  _538
REMARK  221  A    between atoms: _538  and  _539
REMARK  222  A    between atoms: _538  and  _541
REMARK  223  A    between atoms: _541  and  _542
REMARK  224  A    between atoms: _545  and  _547
REMARK  225  A    between atoms: _547  and  _548
REMARK  226  A    between atoms: _550  and  _552
REMARK  227  A    between atoms: _552  and  _553
REMARK  228  A    between atoms: _552  and  _555
REMARK  229  A    between atoms: _555  and  _556
REMARK  230  A    between atoms: _556  and  _557
REMARK  231  A    between atoms: _557  and  _558
REMARK  232  A    between atoms: _567  and  _569
REMARK  233  A    between atoms: _569  and  _570
REMARK  234  A    between atoms: _569  and  _572
REMARK  235  A    between atoms: _572  and  _573
REMARK                            x       y       z     vdW  Elec       q    Type
REMARK                         _______ _______ _______ _____ _____    ______ ____
ROOT
ATOM      1  O   HOH     1      22.712  27.167  24.104  0.00  0.00    +0.000 OA
ENDROOT
TORSDOF 0
REMARK  Name = ../refined-set-2016/3nu9/3nu9_pocket.pdb
REMARK  235 active torsions:
REMARK  status: ('A' for Active; 'I' for Inactive)
REMARK    1  A    between atoms: _1  and  _3
REMARK    2  A    between atoms: _3  and  _4
REMARK    3  A    between atoms: _3  and  _6
REMARK    4  A    between atoms: _6  and  _7
REMARK    5  A    between atoms: _7  and  _8
REMARK    6  A    between atoms: _8  and  _9
REMARK    7  A    between atoms: _18  and  _20
REMARK    8  A    between atoms: _20  and  _21
REMARK    9  A    between atoms: _20  and  _23
REMARK   10  A    between atoms: _23  and  _24
REMARK   11  A    between atoms: _27  and  _29
REMARK   12  A    between atoms: _29  and  _30
REMARK   13  A    between atoms: _29  and  _32
REMARK   14  A    between atoms: _32  and  _33
REMARK   15  A    between atoms: _36  and  _38
REMARK   16  A    between atoms: _38  and  _39
REMARK   17  A    between atoms: _38  and  _41
REMARK   18  A    between atoms: _41  and  _42
REMARK   19  A    between atoms: _45  and  _47
REMARK   20  A    between atoms: _47  and  _48
REMARK   21  A    between atoms: _47  and  _50
REMARK   22  A    between atoms: _50  and  _51
REMARK   23  A    between atoms: _54  and  _56
REMARK   24  A    between atoms: _56  and  _57
REMARK   25  A    between atoms: _59  and  _61
REMARK   26  A    between atoms: _61  and  _62
REMARK   27  A    between atoms: _65  and  _67
REMARK   28  A    between atoms: _67  and  _68
REMARK   29  A    between atoms: _67  and  _70
REMARK   30  A    between atoms: _70  and  _71
REMARK   31  A    between atoms: _74  and  _76
REMARK   32  A    between atoms: _76  and  _77
REMARK   33  A    between atoms: _76  and  _79
REMARK   34  A    between atoms: _79  and  _80
REMARK   35  A    between atoms: _83  and  _85
REMARK   36  A    between atoms: _85  and  _86
REMARK   37  A    between atoms: _85  and  _88
REMARK   38  A    between atoms: _88  and  _89
REMARK   39  A    between atoms: _92  and  _94
REMARK   40  A    between atoms: _94  and  _95
REMARK   41  A    between atoms: _94  and  _97
REMARK   42  A    between atoms: _100  and  _102
REMARK   43  A    between atoms: _102  and  _103
REMARK   44  A    between atoms: _102  and  _105
REMARK   45  A    between atoms: _105  and  _106
REMARK   46  A    between atoms: _109  and  _111
REMARK   47  A    between atoms: _111  and  _112
REMARK   48  A    between atoms: _111  and  _114
REMARK   49  A    between atoms: _114  and  _115
REMARK   50  A    between atoms: _115  and  _116
REMARK   51  A    between atoms: _116  and  _117
REMARK   52  A    between atoms: _117  and  _118
REMARK   53  A    between atoms: _122  and  _124
REMARK   54  A    between atoms: _124  and  _125
REMARK   55  A    between atoms: _124  and  _127
REMARK   56  A    between atoms: _127  and  _128
REMARK   57  A    between atoms: _128  and  _129
REMARK   58  A    between atoms: _131  and  _133
REMARK   59  A    between atoms: _133  and  _134
REMARK   60  A    between atoms: _133  and  _136
REMARK   61  A    between atoms: _136  and  _137
REMARK   62  A    between atoms: _140  and  _142
REMARK   63  A    between atoms: _142  and  _143
REMARK   64  A    between atoms: _145  and  _147
REMARK   65  A    between atoms: _147  and  _148
REMARK   66  A    between atoms: _150  and  _152
REMARK   67  A    between atoms: _152  and  _153
REMARK   68  A    between atoms: _152  and  _155
REMARK   69  A    between atoms: _155  and  _156
REMARK   70  A    between atoms: _159  and  _161
REMARK   71  A    between atoms: _161  and  _162
REMARK   72  A    between atoms: _164  and  _166
REMARK   73  A    between atoms: _166  and  _167
REMARK   74  A    between atoms: _169  and  _171
REMARK   75  A    between atoms: _171  and  _172
REMARK   76  A    between atoms: _171  and  _174
REMARK   77  A    between atoms: _174  and  _175
REMARK   78  A    between atoms: _181  and  _183
REMARK   79  A    between atoms: _183  and  _184
REMARK   80  A    between atoms: _183  and  _186
REMARK   81  A    between atoms: _186  and  _187
REMARK   82  A    between atoms: _190  and  _192
REMARK   83  A    between atoms: _192  and  _193
REMARK   84  A    between atoms: _192  and  _195
REMARK   85  A    between atoms: _198  and  _200
REMARK   86  A    between atoms: _200  and  _201
REMARK   87  A    between atoms: _200  and  _203
REMARK   88  A    between atoms: _203  and  _204
REMARK   89  A    between atoms: _208  and  _209
REMARK   90  A    between atoms: _214  and  _216
REMARK   91  A    between atoms: _216  and  _217
REMARK   92  A    between atoms: _216  and  _219
REMARK   93  A    between atoms: _219  and  _220
REMARK   94  A    between atoms: _224  and  _225
REMARK   95  A    between atoms: _230  and  _232
REMARK   96  A    between atoms: _232  and  _233
REMARK   97  A    between atoms: _232  and  _235
REMARK   98  A    between atoms: _238  and  _240
REMARK   99  A    between atoms: _240  and  _241
REMARK  100  A    between atoms: _240  and  _243
REMARK  101  A    between atoms: _243  and  _244
REMARK  102  A    between atoms: _249  and  _251
REMARK  103  A    between atoms: _251  and  _252
REMARK  104  A    between atoms: _251  and  _254
REMARK  105  A    between atoms: _257  and  _259
REMARK  106  A    between atoms: _259  and  _260
REMARK  107  A    between atoms: _259  and  _262
REMARK  108  A    between atoms: _262  and  _263
REMARK  109  A    between atoms: _266  and  _268
REMARK  110  A    between atoms: _268  and  _269
REMARK  111  A    between atoms: _271  and  _273
REMARK  112  A    between atoms: _273  and  _274
REMARK  113  A    between atoms: _273  and  _276
REMARK  114  A    between atoms: _276  and  _277
REMARK  115  A    between atoms: _277  and  _278
REMARK  116  A    between atoms: _278  and  _279
REMARK  117  A    between atoms: _288  and  _290
REMARK  118  A    between atoms: _290  and  _291
REMARK  119  A    between atoms: _290  and  _293
REMARK  120  A    between atoms: _293  and  _294
REMARK  121  A    between atoms: _299  and  _301
REMARK  122  A    between atoms: _301  and  _302
REMARK  123  A    between atoms: _301  and  _304
REMARK  124  A    between atoms: _304  and  _305
REMARK  125  A    between atoms: _305  and  _306
REMARK  126  A    between atoms: _306  and  _307
REMARK  127  A    between atoms: _316  and  _318
REMARK  128  A    between atoms: _318  and  _319
REMARK  129  A    between atoms: _318  and  _321
REMARK  130  A    between atoms: _321  and  _322
REMARK  131  A    between atoms: _325  and  _327
REMARK  132  A    between atoms: _327  and  _328
REMARK  133  A    between atoms: _327  and  _330
REMARK  134  A    between atoms: _330  and  _331
REMARK  135  A    between atoms: _334  and  _336
REMARK  136  A    between atoms: _336  and  _337
REMARK  137  A    between atoms: _336  and  _339
REMARK  138  A    between atoms: _339  and  _340
REMARK  139  A    between atoms: _343  and  _345
REMARK  140  A    between atoms: _345  and  _346
REMARK  141  A    between atoms: _345  and  _348
REMARK  142  A    between atoms: _348  and  _349
REMARK  143  A    between atoms: _352  and  _354
REMARK  144  A    between atoms: _354  and  _355
REMARK  145  A    between atoms: _357  and  _359
REMARK  146  A    between atoms: _359  and  _360
REMARK  147  A    between atoms: _363  and  _365
REMARK  148  A    between atoms: _365  and  _366
REMARK  149  A    between atoms: _365  and  _368
REMARK  150  A    between atoms: _368  and  _369
REMARK  151  A    between atoms: _372  and  _374
REMARK  152  A    between atoms: _374  and  _375
REMARK  153  A    between atoms: _374  and  _377
REMARK  154  A    between atoms: _377  and  _378
REMARK  155  A    between atoms: _381  and  _383
REMARK  156  A    between atoms: _383  and  _384
REMARK  157  A    between atoms: _383  and  _386
REMARK  158  A    between atoms: _386  and  _387
REMARK  159  A    between atoms: _390  and  _392
REMARK  160  A    between atoms: _392  and  _393
REMARK  161  A    between atoms: _392  and  _395
REMARK  162  A    between atoms: _398  and  _400
REMARK  163  A    between atoms: _400  and  _401
REMARK  164  A    between atoms: _400  and  _403
REMARK  165  A    between atoms: _403  and  _404
REMARK  166  A    between atoms: _407  and  _409
REMARK  167  A    between atoms: _409  and  _410
REMARK  168  A    between atoms: _409  and  _412
REMARK  169  A    between atoms: _412  and  _413
REMARK  170  A    between atoms: _413  and  _414
REMARK  171  A    between atoms: _414  and  _415
REMARK  172  A    between atoms: _415  and  _416
REMARK  173  A    between atoms: _420  and  _422
REMARK  174  A    between atoms: _422  and  _423
REMARK  175  A    between atoms: _422  and  _425
REMARK  176  A    between atoms: _425  and  _426
REMARK  177  A    between atoms: _426  and  _427
REMARK  178  A    between atoms: _429  and  _431
REMARK  179  A    between atoms: _431  and  _432
REMARK  180  A    between atoms: _431  and  _434
REMARK  181  A    between atoms: _434  and  _435
REMARK  182  A    between atoms: _438  and  _440
REMARK  183  A    between atoms: _440  and  _441
REMARK  184  A    between atoms: _443  and  _445
REMARK  185  A    between atoms: _445  and  _446
REMARK  186  A    between atoms: _448  and  _450
REMARK  187  A    between atoms: _450  and  _451
REMARK  188  A    between atoms: _450  and  _453
REMARK  189  A    between atoms: _453  and  _454
REMARK  190  A    between atoms: _457  and  _459
REMARK  191  A    between atoms: _459  and  _460
REMARK  192  A    between atoms: _462  and  _464
REMARK  193  A    between atoms: _464  and  _465
REMARK  194  A    between atoms: _467  and  _469
REMARK  195  A    between atoms: _469  and  _470
REMARK  196  A    between atoms: _469  and  _472
REMARK  197  A    between atoms: _472  and  _473
REMARK  198  A    between atoms: _476  and  _478
REMARK  199  A    between atoms: _478  and  _479
REMARK  200  A    between atoms: _478  and  _481
REMARK  201  A    between atoms: _484  and  _486
REMARK  202  A    between atoms: _486  and  _487
REMARK  203  A    between atoms: _486  and  _489
REMARK  204  A    between atoms: _489  and  _490
REMARK  205  A    between atoms: _493  and  _495
REMARK  206  A    between atoms: _495  and  _496
REMARK  207  A    between atoms: _495  and  _498
REMARK  208  A    between atoms: _498  and  _499
REMARK  209  A    between atoms: _503  and  _504
REMARK  210  A    between atoms: _509  and  _511
REMARK  211  A    between atoms: _511  and  _512
REMARK  212  A    between atoms: _511  and  _514
REMARK  213  A    between atoms: _517  and  _519
REMARK  214  A    between atoms: _519  and  _520
REMARK  215  A    between atoms: _519  and  _522
REMARK  216  A    between atoms: _522  and  _523
REMARK  217  A    between atoms: _528  and  _530
REMARK  218  A    between atoms: _530  and  _531
REMARK  219  A    between atoms: _530  and  _533
REMARK  220  A    between atoms: _536  and  _538
REMARK  221  A    between atoms: _538  and  _539
REMARK  222  A    between atoms: _538  and  _541
REMARK  223  A    between atoms: _541  and  _542
REMARK  224  A    between atoms: _545  and  _547
REMARK  225  A    between atoms: _547  and  _548
REMARK  226  A    between atoms: _550  and  _552
REMARK  227  A    between atoms: _552  and  _553
REMARK  228  A    between atoms: _552  and  _555
REMARK  229  A    between atoms: _555  and  _556
REMARK  230  A    between atoms: _556  and  _557
REMARK  231  A    between atoms: _557  and  _558
REMARK  232  A    between atoms: _567  and  _569
REMARK  233  A    between atoms: _569  and  _570
REMARK  234  A    between atoms: _569  and  _572
REMARK  235  A    between atoms: _572  and  _573
REMARK                            x       y       z     vdW  Elec       q    Type
REMARK                         _______ _______ _______ _____ _____    ______ ____
ROOT
ATOM      1  O   HOH     1      21.668  19.576  17.749  0.00  0.00    +0.000 OA
ENDROOT
TORSDOF 0
REMARK  Name = ../refined-set-2016/3nu9/3nu9_pocket.pdb
REMARK  235 active torsions:
REMARK  status: ('A' for Active; 'I' for Inactive)
REMARK    1  A    between atoms: _1  and  _3
REMARK    2  A    between atoms: _3  and  _4
REMARK    3  A    between atoms: _3  and  _6
REMARK    4  A    between atoms: _6  and  _7
REMARK    5  A    between atoms: _7  and  _8
REMARK    6  A    between atoms: _8  and  _9
REMARK    7  A    between atoms: _18  and  _20
REMARK    8  A    between atoms: _20  and  _21
REMARK    9  A    between atoms: _20  and  _23
REMARK   10  A    between atoms: _23  and  _24
REMARK   11  A    between atoms: _27  and  _29
REMARK   12  A    between atoms: _29  and  _30
REMARK   13  A    between atoms: _29  and  _32
REMARK   14  A    between atoms: _32  and  _33
REMARK   15  A    between atoms: _36  and  _38
REMARK   16  A    between atoms: _38  and  _39
REMARK   17  A    between atoms: _38  and  _41
REMARK   18  A    between atoms: _41  and  _42
REMARK   19  A    between atoms: _45  and  _47
REMARK   20  A    between atoms: _47  and  _48
REMARK   21  A    between atoms: _47  and  _50
REMARK   22  A    between atoms: _50  and  _51
REMARK   23  A    between atoms: _54  and  _56
REMARK   24  A    between atoms: _56  and  _57
REMARK   25  A    between atoms: _59  and  _61
REMARK   26  A    between atoms: _61  and  _62
REMARK   27  A    between atoms: _65  and  _67
REMARK   28  A    between atoms: _67  and  _68
REMARK   29  A    between atoms: _67  and  _70
REMARK   30  A    between atoms: _70  and  _71
REMARK   31  A    between atoms: _74  and  _76
REMARK   32  A    between atoms: _76  and  _77
REMARK   33  A    between atoms: _76  and  _79
REMARK   34  A    between atoms: _79  and  _80
REMARK   35  A    between atoms: _83  and  _85
REMARK   36  A    between atoms: _85  and  _86
REMARK   37  A    between atoms: _85  and  _88
REMARK   38  A    between atoms: _88  and  _89
REMARK   39  A    between atoms: _92  and  _94
REMARK   40  A    between atoms: _94  and  _95
REMARK   41  A    between atoms: _94  and  _97
REMARK   42  A    between atoms: _100  and  _102
REMARK   43  A    between atoms: _102  and  _103
REMARK   44  A    between atoms: _102  and  _105
REMARK   45  A    between atoms: _105  and  _106
REMARK   46  A    between atoms: _109  and  _111
REMARK   47  A    between atoms: _111  and  _112
REMARK   48  A    between atoms: _111  and  _114
REMARK   49  A    between atoms: _114  and  _115
REMARK   50  A    between atoms: _115  and  _116
REMARK   51  A    between atoms: _116  and  _117
REMARK   52  A    between atoms: _117  and  _118
REMARK   53  A    between atoms: _122  and  _124
REMARK   54  A    between atoms: _124  and  _125
REMARK   55  A    between atoms: _124  and  _127
REMARK   56  A    between atoms: _127  and  _128
REMARK   57  A    between atoms: _128  and  _129
REMARK   58  A    between atoms: _131  and  _133
REMARK   59  A    between atoms: _133  and  _134
REMARK   60  A    between atoms: _133  and  _136
REMARK   61  A    between atoms: _136  and  _137
REMARK   62  A    between atoms: _140  and  _142
REMARK   63  A    between atoms: _142  and  _143
REMARK   64  A    between atoms: _145  and  _147
REMARK   65  A    between atoms: _147  and  _148
REMARK   66  A    between atoms: _150  and  _152
REMARK   67  A    between atoms: _152  and  _153
REMARK   68  A    between atoms: _152  and  _155
REMARK   69  A    between atoms: _155  and  _156
REMARK   70  A    between atoms: _159  and  _161
REMARK   71  A    between atoms: _161  and  _162
REMARK   72  A    between atoms: _164  and  _166
REMARK   73  A    between atoms: _166  and  _167
REMARK   74  A    between atoms: _169  and  _171
REMARK   75  A    between atoms: _171  and  _172
REMARK   76  A    between atoms: _171  and  _174
REMARK   77  A    between atoms: _174  and  _175
REMARK   78  A    between atoms: _181  and  _183
REMARK   79  A    between atoms: _183  and  _184
REMARK   80  A    between atoms: _183  and  _186
REMARK   81  A    between atoms: _186  and  _187
REMARK   82  A    between atoms: _190  and  _192
REMARK   83  A    between atoms: _192  and  _193
REMARK   84  A    between atoms: _192  and  _195
REMARK   85  A    between atoms: _198  and  _200
REMARK   86  A    between atoms: _200  and  _201
REMARK   87  A    between atoms: _200  and  _203
REMARK   88  A    between atoms: _203  and  _204
REMARK   89  A    between atoms: _208  and  _209
REMARK   90  A    between atoms: _214  and  _216
REMARK   91  A    between atoms: _216  and  _217
REMARK   92  A    between atoms: _216  and  _219
REMARK   93  A    between atoms: _219  and  _220
REMARK   94  A    between atoms: _224  and  _225
REMARK   95  A    between atoms: _230  and  _232
REMARK   96  A    between atoms: _232  and  _233
REMARK   97  A    between atoms: _232  and  _235
REMARK   98  A    between atoms: _238  and  _240
REMARK   99  A    between atoms: _240  and  _241
REMARK  100  A    between atoms: _240  and  _243
REMARK  101  A    between atoms: _243  and  _244
REMARK  102  A    between atoms: _249  and  _251
REMARK  103  A    between atoms: _251  and  _252
REMARK  104  A    between atoms: _251  and  _254
REMARK  105  A    between atoms: _257  and  _259
REMARK  106  A    between atoms: _259  and  _260
REMARK  107  A    between atoms: _259  and  _262
REMARK  108  A    between atoms: _262  and  _263
REMARK  109  A    between atoms: _266  and  _268
REMARK  110  A    between atoms: _268  and  _269
REMARK  111  A    between atoms: _271  and  _273
REMARK  112  A    between atoms: _273  and  _274
REMARK  113  A    between atoms: _273  and  _276
REMARK  114  A    between atoms: _276  and  _277
REMARK  115  A    between atoms: _277  and  _278
REMARK  116  A    between atoms: _278  and  _279
REMARK  117  A    between atoms: _288  and  _290
REMARK  118  A    between atoms: _290  and  _291
REMARK  119  A    between atoms: _290  and  _293
REMARK  120  A    between atoms: _293  and  _294
REMARK  121  A    between atoms: _299  and  _301
REMARK  122  A    between atoms: _301  and  _302
REMARK  123  A    between atoms: _301  and  _304
REMARK  124  A    between atoms: _304  and  _305
REMARK  125  A    between atoms: _305  and  _306
REMARK  126  A    between atoms: _306  and  _307
REMARK  127  A    between atoms: _316  and  _318
REMARK  128  A    between atoms: _318  and  _319
REMARK  129  A    between atoms: _318  and  _321
REMARK  130  A    between atoms: _321  and  _322
REMARK  131  A    between atoms: _325  and  _327
REMARK  132  A    between atoms: _327  and  _328
REMARK  133  A    between atoms: _327  and  _330
REMARK  134  A    between atoms: _330  and  _331
REMARK  135  A    between atoms: _334  and  _336
REMARK  136  A    between atoms: _336  and  _337
REMARK  137  A    between atoms: _336  and  _339
REMARK  138  A    between atoms: _339  and  _340
REMARK  139  A    between atoms: _343  and  _345
REMARK  140  A    between atoms: _345  and  _346
REMARK  141  A    between atoms: _345  and  _348
REMARK  142  A    between atoms: _348  and  _349
REMARK  143  A    between atoms: _352  and  _354
REMARK  144  A    between atoms: _354  and  _355
REMARK  145  A    between atoms: _357  and  _359
REMARK  146  A    between atoms: _359  and  _360
REMARK  147  A    between atoms: _363  and  _365
REMARK  148  A    between atoms: _365  and  _366
REMARK  149  A    between atoms: _365  and  _368
REMARK  150  A    between atoms: _368  and  _369
REMARK  151  A    between atoms: _372  and  _374
REMARK  152  A    between atoms: _374  and  _375
REMARK  153  A    between atoms: _374  and  _377
REMARK  154  A    between atoms: _377  and  _378
REMARK  155  A    between atoms: _381  and  _383
REMARK  156  A    between atoms: _383  and  _384
REMARK  157  A    between atoms: _383  and  _386
REMARK  158  A    between atoms: _386  and  _387
REMARK  159  A    between atoms: _390  and  _392
REMARK  160  A    between atoms: _392  and  _393
REMARK  161  A    between atoms: _392  and  _395
REMARK  162  A    between atoms: _398  and  _400
REMARK  163  A    between atoms: _400  and  _401
REMARK  164  A    between atoms: _400  and  _403
REMARK  165  A    between atoms: _403  and  _404
REMARK  166  A    between atoms: _407  and  _409
REMARK  167  A    between atoms: _409  and  _410
REMARK  168  A    between atoms: _409  and  _412
REMARK  169  A    between atoms: _412  and  _413
REMARK  170  A    between atoms: _413  and  _414
REMARK  171  A    between atoms: _414  and  _415
REMARK  172  A    between atoms: _415  and  _416
REMARK  173  A    between atoms: _420  and  _422
REMARK  174  A    between atoms: _422  and  _423
REMARK  175  A    between atoms: _422  and  _425
REMARK  176  A    between atoms: _425  and  _426
REMARK  177  A    between atoms: _426  and  _427
REMARK  178  A    between atoms: _429  and  _431
REMARK  179  A    between atoms: _431  and  _432
REMARK  180  A    between atoms: _431  and  _434
REMARK  181  A    between atoms: _434  and  _435
REMARK  182  A    between atoms: _438  and  _440
REMARK  183  A    between atoms: _440  and  _441
REMARK  184  A    between atoms: _443  and  _445
REMARK  185  A    between atoms: _445  and  _446
REMARK  186  A    between atoms: _448  and  _450
REMARK  187  A    between atoms: _450  and  _451
REMARK  188  A    between atoms: _450  and  _453
REMARK  189  A    between atoms: _453  and  _454
REMARK  190  A    between atoms: _457  and  _459
REMARK  191  A    between atoms: _459  and  _460
REMARK  192  A    between atoms: _462  and  _464
REMARK  193  A    between atoms: _464  and  _465
REMARK  194  A    between atoms: _467  and  _469
REMARK  195  A    between atoms: _469  and  _470
REMARK  196  A    between atoms: _469  and  _472
REMARK  197  A    between atoms: _472  and  _473
REMARK  198  A    between atoms: _476  and  _478
REMARK  199  A    between atoms: _478  and  _479
REMARK  200  A    between atoms: _478  and  _481
REMARK  201  A    between atoms: _484  and  _486
REMARK  202  A    between atoms: _486  and  _487
REMARK  203  A    between atoms: _486  and  _489
REMARK  204  A    between atoms: _489  and  _490
REMARK  205  A    between atoms: _493  and  _495
REMARK  206  A    between atoms: _495  and  _496
REMARK  207  A    between atoms: _495  and  _498
REMARK  208  A    between atoms: _498  and  _499
REMARK  209  A    between atoms: _503  and  _504
REMARK  210  A    between atoms: _509  and  _511
REMARK  211  A    between atoms: _511  and  _512
REMARK  212  A    between atoms: _511  and  _514
REMARK  213  A    between atoms: _517  and  _519
REMARK  214  A    between atoms: _519  and  _520
REMARK  215  A    between atoms: _519  and  _522
REMARK  216  A    between atoms: _522  and  _523
REMARK  217  A    between atoms: _528  and  _530
REMARK  218  A    between atoms: _530  and  _531
REMARK  219  A    between atoms: _530  and  _533
REMARK  220  A    between atoms: _536  and  _538
REMARK  221  A    between atoms: _538  and  _539
REMARK  222  A    between atoms: _538  and  _541
REMARK  223  A    between atoms: _541  and  _542
REMARK  224  A    between atoms: _545  and  _547
REMARK  225  A    between atoms: _547  and  _548
REMARK  226  A    between atoms: _550  and  _552
REMARK  227  A    between atoms: _552  and  _553
REMARK  228  A    between atoms: _552  and  _555
REMARK  229  A    between atoms: _555  and  _556
REMARK  230  A    between atoms: _556  and  _557
REMARK  231  A    between atoms: _557  and  _558
REMARK  232  A    between atoms: _567  and  _569
REMARK  233  A    between atoms: _569  and  _570
REMARK  234  A    between atoms: _569  and  _572
REMARK  235  A    between atoms: _572  and  _573
REMARK                            x       y       z     vdW  Elec       q    Type
REMARK                         _______ _______ _______ _____ _____    ______ ____
ROOT
ATOM      1  O   HOH     1      18.611  28.493  16.127  0.00  0.00    +0.000 OA
ENDROOT
TORSDOF 0
REMARK  Name = ../refined-set-2016/3nu9/3nu9_pocket.pdb
REMARK  235 active torsions:
REMARK  status: ('A' for Active; 'I' for Inactive)
REMARK    1  A    between atoms: _1  and  _3
REMARK    2  A    between atoms: _3  and  _4
REMARK    3  A    between atoms: _3  and  _6
REMARK    4  A    between atoms: _6  and  _7
REMARK    5  A    between atoms: _7  and  _8
REMARK    6  A    between atoms: _8  and  _9
REMARK    7  A    between atoms: _18  and  _20
REMARK    8  A    between atoms: _20  and  _21
REMARK    9  A    between atoms: _20  and  _23
REMARK   10  A    between atoms: _23  and  _24
REMARK   11  A    between atoms: _27  and  _29
REMARK   12  A    between atoms: _29  and  _30
REMARK   13  A    between atoms: _29  and  _32
REMARK   14  A    between atoms: _32  and  _33
REMARK   15  A    between atoms: _36  and  _38
REMARK   16  A    between atoms: _38  and  _39
REMARK   17  A    between atoms: _38  and  _41
REMARK   18  A    between atoms: _41  and  _42
REMARK   19  A    between atoms: _45  and  _47
REMARK   20  A    between atoms: _47  and  _48
REMARK   21  A    between atoms: _47  and  _50
REMARK   22  A    between atoms: _50  and  _51
REMARK   23  A    between atoms: _54  and  _56
REMARK   24  A    between atoms: _56  and  _57
REMARK   25  A    between atoms: _59  and  _61
REMARK   26  A    between atoms: _61  and  _62
REMARK   27  A    between atoms: _65  and  _67
REMARK   28  A    between atoms: _67  and  _68
REMARK   29  A    between atoms: _67  and  _70
REMARK   30  A    between atoms: _70  and  _71
REMARK   31  A    between atoms: _74  and  _76
REMARK   32  A    between atoms: _76  and  _77
REMARK   33  A    between atoms: _76  and  _79
REMARK   34  A    between atoms: _79  and  _80
REMARK   35  A    between atoms: _83  and  _85
REMARK   36  A    between atoms: _85  and  _86
REMARK   37  A    between atoms: _85  and  _88
REMARK   38  A    between atoms: _88  and  _89
REMARK   39  A    between atoms: _92  and  _94
REMARK   40  A    between atoms: _94  and  _95
REMARK   41  A    between atoms: _94  and  _97
REMARK   42  A    between atoms: _100  and  _102
REMARK   43  A    between atoms: _102  and  _103
REMARK   44  A    between atoms: _102  and  _105
REMARK   45  A    between atoms: _105  and  _106
REMARK   46  A    between atoms: _109  and  _111
REMARK   47  A    between atoms: _111  and  _112
REMARK   48  A    between atoms: _111  and  _114
REMARK   49  A    between atoms: _114  and  _115
REMARK   50  A    between atoms: _115  and  _116
REMARK   51  A    between atoms: _116  and  _117
REMARK   52  A    between atoms: _117  and  _118
REMARK   53  A    between atoms: _122  and  _124
REMARK   54  A    between atoms: _124  and  _125
REMARK   55  A    between atoms: _124  and  _127
REMARK   56  A    between atoms: _127  and  _128
REMARK   57  A    between atoms: _128  and  _129
REMARK   58  A    between atoms: _131  and  _133
REMARK   59  A    between atoms: _133  and  _134
REMARK   60  A    between atoms: _133  and  _136
REMARK   61  A    between atoms: _136  and  _137
REMARK   62  A    between atoms: _140  and  _142
REMARK   63  A    between atoms: _142  and  _143
REMARK   64  A    between atoms: _145  and  _147
REMARK   65  A    between atoms: _147  and  _148
REMARK   66  A    between atoms: _150  and  _152
REMARK   67  A    between atoms: _152  and  _153
REMARK   68  A    between atoms: _152  and  _155
REMARK   69  A    between atoms: _155  and  _156
REMARK   70  A    between atoms: _159  and  _161
REMARK   71  A    between atoms: _161  and  _162
REMARK   72  A    between atoms: _164  and  _166
REMARK   73  A    between atoms: _166  and  _167
REMARK   74  A    between atoms: _169  and  _171
REMARK   75  A    between atoms: _171  and  _172
REMARK   76  A    between atoms: _171  and  _174
REMARK   77  A    between atoms: _174  and  _175
REMARK   78  A    between atoms: _181  and  _183
REMARK   79  A    between atoms: _183  and  _184
REMARK   80  A    between atoms: _183  and  _186
REMARK   81  A    between atoms: _186  and  _187
REMARK   82  A    between atoms: _190  and  _192
REMARK   83  A    between atoms: _192  and  _193
REMARK   84  A    between atoms: _192  and  _195
REMARK   85  A    between atoms: _198  and  _200
REMARK   86  A    between atoms: _200  and  _201
REMARK   87  A    between atoms: _200  and  _203
REMARK   88  A    between atoms: _203  and  _204
REMARK   89  A    between atoms: _208  and  _209
REMARK   90  A    between atoms: _214  and  _216
REMARK   91  A    between atoms: _216  and  _217
REMARK   92  A    between atoms: _216  and  _219
REMARK   93  A    between atoms: _219  and  _220
REMARK   94  A    between atoms: _224  and  _225
REMARK   95  A    between atoms: _230  and  _232
REMARK   96  A    between atoms: _232  and  _233
REMARK   97  A    between atoms: _232  and  _235
REMARK   98  A    between atoms: _238  and  _240
REMARK   99  A    between atoms: _240  and  _241
REMARK  100  A    between atoms: _240  and  _243
REMARK  101  A    between atoms: _243  and  _244
REMARK  102  A    between atoms: _249  and  _251
REMARK  103  A    between atoms: _251  and  _252
REMARK  104  A    between atoms: _251  and  _254
REMARK  105  A    between atoms: _257  and  _259
REMARK  106  A    between atoms: _259  and  _260
REMARK  107  A    between atoms: _259  and  _262
REMARK  108  A    between atoms: _262  and  _263
REMARK  109  A    between atoms: _266  and  _268
REMARK  110  A    between atoms: _268  and  _269
REMARK  111  A    between atoms: _271  and  _273
REMARK  112  A    between atoms: _273  and  _274
REMARK  113  A    between atoms: _273  and  _276
REMARK  114  A    between atoms: _276  and  _277
REMARK  115  A    between atoms: _277  and  _278
REMARK  116  A    between atoms: _278  and  _279
REMARK  117  A    between atoms: _288  and  _290
REMARK  118  A    between atoms: _290  and  _291
REMARK  119  A    between atoms: _290  and  _293
REMARK  120  A    between atoms: _293  and  _294
REMARK  121  A    between atoms: _299  and  _301
REMARK  122  A    between atoms: _301  and  _302
REMARK  123  A    between atoms: _301  and  _304
REMARK  124  A    between atoms: _304  and  _305
REMARK  125  A    between atoms: _305  and  _306
REMARK  126  A    between atoms: _306  and  _307
REMARK  127  A    between atoms: _316  and  _318
REMARK  128  A    between atoms: _318  and  _319
REMARK  129  A    between atoms: _318  and  _321
REMARK  130  A    between atoms: _321  and  _322
REMARK  131  A    between atoms: _325  and  _327
REMARK  132  A    between atoms: _327  and  _328
REMARK  133  A    between atoms: _327  and  _330
REMARK  134  A    between atoms: _330  and  _331
REMARK  135  A    between atoms: _334  and  _336
REMARK  136  A    between atoms: _336  and  _337
REMARK  137  A    between atoms: _336  and  _339
REMARK  138  A    between atoms: _339  and  _340
REMARK  139  A    between atoms: _343  and  _345
REMARK  140  A    between atoms: _345  and  _346
REMARK  141  A    between atoms: _345  and  _348
REMARK  142  A    between atoms: _348  and  _349
REMARK  143  A    between atoms: _352  and  _354
REMARK  144  A    between atoms: _354  and  _355
REMARK  145  A    between atoms: _357  and  _359
REMARK  146  A    between atoms: _359  and  _360
REMARK  147  A    between atoms: _363  and  _365
REMARK  148  A    between atoms: _365  and  _366
REMARK  149  A    between atoms: _365  and  _368
REMARK  150  A    between atoms: _368  and  _369
REMARK  151  A    between atoms: _372  and  _374
REMARK  152  A    between atoms: _374  and  _375
REMARK  153  A    between atoms: _374  and  _377
REMARK  154  A    between atoms: _377  and  _378
REMARK  155  A    between atoms: _381  and  _383
REMARK  156  A    between atoms: _383  and  _384
REMARK  157  A    between atoms: _383  and  _386
REMARK  158  A    between atoms: _386  and  _387
REMARK  159  A    between atoms: _390  and  _392
REMARK  160  A    between atoms: _392  and  _393
REMARK  161  A    between atoms: _392  and  _395
REMARK  162  A    between atoms: _398  and  _400
REMARK  163  A    between atoms: _400  and  _401
REMARK  164  A    between atoms: _400  and  _403
REMARK  165  A    between atoms: _403  and  _404
REMARK  166  A    between atoms: _407  and  _409
REMARK  167  A    between atoms: _409  and  _410
REMARK  168  A    between atoms: _409  and  _412
REMARK  169  A    between atoms: _412  and  _413
REMARK  170  A    between atoms: _413  and  _414
REMARK  171  A    between atoms: _414  and  _415
REMARK  172  A    between atoms: _415  and  _416
REMARK  173  A    between atoms: _420  and  _422
REMARK  174  A    between atoms: _422  and  _423
REMARK  175  A    between atoms: _422  and  _425
REMARK  176  A    between atoms: _425  and  _426
REMARK  177  A    between atoms: _426  and  _427
REMARK  178  A    between atoms: _429  and  _431
REMARK  179  A    between atoms: _431  and  _432
REMARK  180  A    between atoms: _431  and  _434
REMARK  181  A    between atoms: _434  and  _435
REMARK  182  A    between atoms: _438  and  _440
REMARK  183  A    between atoms: _440  and  _441
REMARK  184  A    between atoms: _443  and  _445
REMARK  185  A    between atoms: _445  and  _446
REMARK  186  A    between atoms: _448  and  _450
REMARK  187  A    between atoms: _450  and  _451
REMARK  188  A    between atoms: _450  and  _453
REMARK  189  A    between atoms: _453  and  _454
REMARK  190  A    between atoms: _457  and  _459
REMARK  191  A    between atoms: _459  and  _460
REMARK  192  A    between atoms: _462  and  _464
REMARK  193  A    between atoms: _464  and  _465
REMARK  194  A    between atoms: _467  and  _469
REMARK  195  A    between atoms: _469  and  _470
REMARK  196  A    between atoms: _469  and  _472
REMARK  197  A    between atoms: _472  and  _473
REMARK  198  A    between atoms: _476  and  _478
REMARK  199  A    between atoms: _478  and  _479
REMARK  200  A    between atoms: _478  and  _481
REMARK  201  A    between atoms: _484  and  _486
REMARK  202  A    between atoms: _486  and  _487
REMARK  203  A    between atoms: _486  and  _489
REMARK  204  A    between atoms: _489  and  _490
REMARK  205  A    between atoms: _493  and  _495
REMARK  206  A    between atoms: _495  and  _496
REMARK  207  A    between atoms: _495  and  _498
REMARK  208  A    between atoms: _498  and  _499
REMARK  209  A    between atoms: _503  and  _504
REMARK  210  A    between atoms: _509  and  _511
REMARK  211  A    between atoms: _511  and  _512
REMARK  212  A    between atoms: _511  and  _514
REMARK  213  A    between atoms: _517  and  _519
REMARK  214  A    between atoms: _519  and  _520
REMARK  215  A    between atoms: _519  and  _522
REMARK  216  A    between atoms: _522  and  _523
REMARK  217  A    between atoms: _528  and  _530
REMARK  218  A    between atoms: _530  and  _531
REMARK  219  A    between atoms: _530  and  _533
REMARK  220  A    between atoms: _536  and  _538
REMARK  221  A    between atoms: _538  and  _539
REMARK  222  A    between atoms: _538  and  _541
REMARK  223  A    between atoms: _541  and  _542
REMARK  224  A    between atoms: _545  and  _547
REMARK  225  A    between atoms: _547  and  _548
REMARK  226  A    between atoms: _550  and  _552
REMARK  227  A    between atoms: _552  and  _553
REMARK  228  A    between atoms: _552  and  _555
REMARK  229  A    between atoms: _555  and  _556
REMARK  230  A    between atoms: _556  and  _557
REMARK  231  A    between atoms: _557  and  _558
REMARK  232  A    between atoms: _567  and  _569
REMARK  233  A    between atoms: _569  and  _570
REMARK  234  A    between atoms: _569  and  _572
REMARK  235  A    between atoms: _572  and  _573
REMARK                            x       y       z     vdW  Elec       q    Type
REMARK                         _______ _______ _______ _____ _____    ______ ____
ROOT
ATOM      1  O   HOH     1      20.445  21.300  16.069  0.00  0.00    +0.000 OA
ENDROOT
TORSDOF 0
REMARK  Name = ../refined-set-2016/3nu9/3nu9_pocket.pdb
REMARK  235 active torsions:
REMARK  status: ('A' for Active; 'I' for Inactive)
REMARK    1  A    between atoms: _1  and  _3
REMARK    2  A    between atoms: _3  and  _4
REMARK    3  A    between atoms: _3  and  _6
REMARK    4  A    between atoms: _6  and  _7
REMARK    5  A    between atoms: _7  and  _8
REMARK    6  A    between atoms: _8  and  _9
REMARK    7  A    between atoms: _18  and  _20
REMARK    8  A    between atoms: _20  and  _21
REMARK    9  A    between atoms: _20  and  _23
REMARK   10  A    between atoms: _23  and  _24
REMARK   11  A    between atoms: _27  and  _29
REMARK   12  A    between atoms: _29  and  _30
REMARK   13  A    between atoms: _29  and  _32
REMARK   14  A    between atoms: _32  and  _33
REMARK   15  A    between atoms: _36  and  _38
REMARK   16  A    between atoms: _38  and  _39
REMARK   17  A    between atoms: _38  and  _41
REMARK   18  A    between atoms: _41  and  _42
REMARK   19  A    between atoms: _45  and  _47
REMARK   20  A    between atoms: _47  and  _48
REMARK   21  A    between atoms: _47  and  _50
REMARK   22  A    between atoms: _50  and  _51
REMARK   23  A    between atoms: _54  and  _56
REMARK   24  A    between atoms: _56  and  _57
REMARK   25  A    between atoms: _59  and  _61
REMARK   26  A    between atoms: _61  and  _62
REMARK   27  A    between atoms: _65  and  _67
REMARK   28  A    between atoms: _67  and  _68
REMARK   29  A    between atoms: _67  and  _70
REMARK   30  A    between atoms: _70  and  _71
REMARK   31  A    between atoms: _74  and  _76
REMARK   32  A    between atoms: _76  and  _77
REMARK   33  A    between atoms: _76  and  _79
REMARK   34  A    between atoms: _79  and  _80
REMARK   35  A    between atoms: _83  and  _85
REMARK   36  A    between atoms: _85  and  _86
REMARK   37  A    between atoms: _85  and  _88
REMARK   38  A    between atoms: _88  and  _89
REMARK   39  A    between atoms: _92  and  _94
REMARK   40  A    between atoms: _94  and  _95
REMARK   41  A    between atoms: _94  and  _97
REMARK   42  A    between atoms: _100  and  _102
REMARK   43  A    between atoms: _102  and  _103
REMARK   44  A    between atoms: _102  and  _105
REMARK   45  A    between atoms: _105  and  _106
REMARK   46  A    between atoms: _109  and  _111
REMARK   47  A    between atoms: _111  and  _112
REMARK   48  A    between atoms: _111  and  _114
REMARK   49  A    between atoms: _114  and  _115
REMARK   50  A    between atoms: _115  and  _116
REMARK   51  A    between atoms: _116  and  _117
REMARK   52  A    between atoms: _117  and  _118
REMARK   53  A    between atoms: _122  and  _124
REMARK   54  A    between atoms: _124  and  _125
REMARK   55  A    between atoms: _124  and  _127
REMARK   56  A    between atoms: _127  and  _128
REMARK   57  A    between atoms: _128  and  _129
REMARK   58  A    between atoms: _131  and  _133
REMARK   59  A    between atoms: _133  and  _134
REMARK   60  A    between atoms: _133  and  _136
REMARK   61  A    between atoms: _136  and  _137
REMARK   62  A    between atoms: _140  and  _142
REMARK   63  A    between atoms: _142  and  _143
REMARK   64  A    between atoms: _145  and  _147
REMARK   65  A    between atoms: _147  and  _148
REMARK   66  A    between atoms: _150  and  _152
REMARK   67  A    between atoms: _152  and  _153
REMARK   68  A    between atoms: _152  and  _155
REMARK   69  A    between atoms: _155  and  _156
REMARK   70  A    between atoms: _159  and  _161
REMARK   71  A    between atoms: _161  and  _162
REMARK   72  A    between atoms: _164  and  _166
REMARK   73  A    between atoms: _166  and  _167
REMARK   74  A    between atoms: _169  and  _171
REMARK   75  A    between atoms: _171  and  _172
REMARK   76  A    between atoms: _171  and  _174
REMARK   77  A    between atoms: _174  and  _175
REMARK   78  A    between atoms: _181  and  _183
REMARK   79  A    between atoms: _183  and  _184
REMARK   80  A    between atoms: _183  and  _186
REMARK   81  A    between atoms: _186  and  _187
REMARK   82  A    between atoms: _190  and  _192
REMARK   83  A    between atoms: _192  and  _193
REMARK   84  A    between atoms: _192  and  _195
REMARK   85  A    between atoms: _198  and  _200
REMARK   86  A    between atoms: _200  and  _201
REMARK   87  A    between atoms: _200  and  _203
REMARK   88  A    between atoms: _203  and  _204
REMARK   89  A    between atoms: _208  and  _209
REMARK   90  A    between atoms: _214  and  _216
REMARK   91  A    between atoms: _216  and  _217
REMARK   92  A    between atoms: _216  and  _219
REMARK   93  A    between atoms: _219  and  _220
REMARK   94  A    between atoms: _224  and  _225
REMARK   95  A    between atoms: _230  and  _232
REMARK   96  A    between atoms: _232  and  _233
REMARK   97  A    between atoms: _232  and  _235
REMARK   98  A    between atoms: _238  and  _240
REMARK   99  A    between atoms: _240  and  _241
REMARK  100  A    between atoms: _240  and  _243
REMARK  101  A    between atoms: _243  and  _244
REMARK  102  A    between atoms: _249  and  _251
REMARK  103  A    between atoms: _251  and  _252
REMARK  104  A    between atoms: _251  and  _254
REMARK  105  A    between atoms: _257  and  _259
REMARK  106  A    between atoms: _259  and  _260
REMARK  107  A    between atoms: _259  and  _262
REMARK  108  A    between atoms: _262  and  _263
REMARK  109  A    between atoms: _266  and  _268
REMARK  110  A    between atoms: _268  and  _269
REMARK  111  A    between atoms: _271  and  _273
REMARK  112  A    between atoms: _273  and  _274
REMARK  113  A    between atoms: _273  and  _276
REMARK  114  A    between atoms: _276  and  _277
REMARK  115  A    between atoms: _277  and  _278
REMARK  116  A    between atoms: _278  and  _279
REMARK  117  A    between atoms: _288  and  _290
REMARK  118  A    between atoms: _290  and  _291
REMARK  119  A    between atoms: _290  and  _293
REMARK  120  A    between atoms: _293  and  _294
REMARK  121  A    between atoms: _299  and  _301
REMARK  122  A    between atoms: _301  and  _302
REMARK  123  A    between atoms: _301  and  _304
REMARK  124  A    between atoms: _304  and  _305
REMARK  125  A    between atoms: _305  and  _306
REMARK  126  A    between atoms: _306  and  _307
REMARK  127  A    between atoms: _316  and  _318
REMARK  128  A    between atoms: _318  and  _319
REMARK  129  A    between atoms: _318  and  _321
REMARK  130  A    between atoms: _321  and  _322
REMARK  131  A    between atoms: _325  and  _327
REMARK  132  A    between atoms: _327  and  _328
REMARK  133  A    between atoms: _327  and  _330
REMARK  134  A    between atoms: _330  and  _331
REMARK  135  A    between atoms: _334  and  _336
REMARK  136  A    between atoms: _336  and  _337
REMARK  137  A    between atoms: _336  and  _339
REMARK  138  A    between atoms: _339  and  _340
REMARK  139  A    between atoms: _343  and  _345
REMARK  140  A    between atoms: _345  and  _346
REMARK  141  A    between atoms: _345  and  _348
REMARK  142  A    between atoms: _348  and  _349
REMARK  143  A    between atoms: _352  and  _354
REMARK  144  A    between atoms: _354  and  _355
REMARK  145  A    between atoms: _357  and  _359
REMARK  146  A    between atoms: _359  and  _360
REMARK  147  A    between atoms: _363  and  _365
REMARK  148  A    between atoms: _365  and  _366
REMARK  149  A    between atoms: _365  and  _368
REMARK  150  A    between atoms: _368  and  _369
REMARK  151  A    between atoms: _372  and  _374
REMARK  152  A    between atoms: _374  and  _375
REMARK  153  A    between atoms: _374  and  _377
REMARK  154  A    between atoms: _377  and  _378
REMARK  155  A    between atoms: _381  and  _383
REMARK  156  A    between atoms: _383  and  _384
REMARK  157  A    between atoms: _383  and  _386
REMARK  158  A    between atoms: _386  and  _387
REMARK  159  A    between atoms: _390  and  _392
REMARK  160  A    between atoms: _392  and  _393
REMARK  161  A    between atoms: _392  and  _395
REMARK  162  A    between atoms: _398  and  _400
REMARK  163  A    between atoms: _400  and  _401
REMARK  164  A    between atoms: _400  and  _403
REMARK  165  A    between atoms: _403  and  _404
REMARK  166  A    between atoms: _407  and  _409
REMARK  167  A    between atoms: _409  and  _410
REMARK  168  A    between atoms: _409  and  _412
REMARK  169  A    between atoms: _412  and  _413
REMARK  170  A    between atoms: _413  and  _414
REMARK  171  A    between atoms: _414  and  _415
REMARK  172  A    between atoms: _415  and  _416
REMARK  173  A    between atoms: _420  and  _422
REMARK  174  A    between atoms: _422  and  _423
REMARK  175  A    between atoms: _422  and  _425
REMARK  176  A    between atoms: _425  and  _426
REMARK  177  A    between atoms: _426  and  _427
REMARK  178  A    between atoms: _429  and  _431
REMARK  179  A    between atoms: _431  and  _432
REMARK  180  A    between atoms: _431  and  _434
REMARK  181  A    between atoms: _434  and  _435
REMARK  182  A    between atoms: _438  and  _440
REMARK  183  A    between atoms: _440  and  _441
REMARK  184  A    between atoms: _443  and  _445
REMARK  185  A    between atoms: _445  and  _446
REMARK  186  A    between atoms: _448  and  _450
REMARK  187  A    between atoms: _450  and  _451
REMARK  188  A    between atoms: _450  and  _453
REMARK  189  A    between atoms: _453  and  _454
REMARK  190  A    between atoms: _457  and  _459
REMARK  191  A    between atoms: _459  and  _460
REMARK  192  A    between atoms: _462  and  _464
REMARK  193  A    between atoms: _464  and  _465
REMARK  194  A    between atoms: _467  and  _469
REMARK  195  A    between atoms: _469  and  _470
REMARK  196  A    between atoms: _469  and  _472
REMARK  197  A    between atoms: _472  and  _473
REMARK  198  A    between atoms: _476  and  _478
REMARK  199  A    between atoms: _478  and  _479
REMARK  200  A    between atoms: _478  and  _481
REMARK  201  A    between atoms: _484  and  _486
REMARK  202  A    between atoms: _486  and  _487
REMARK  203  A    between atoms: _486  and  _489
REMARK  204  A    between atoms: _489  and  _490
REMARK  205  A    between atoms: _493  and  _495
REMARK  206  A    between atoms: _495  and  _496
REMARK  207  A    between atoms: _495  and  _498
REMARK  208  A    between atoms: _498  and  _499
REMARK  209  A    between atoms: _503  and  _504
REMARK  210  A    between atoms: _509  and  _511
REMARK  211  A    between atoms: _511  and  _512
REMARK  212  A    between atoms: _511  and  _514
REMARK  213  A    between atoms: _517  and  _519
REMARK  214  A    between atoms: _519  and  _520
REMARK  215  A    between atoms: _519  and  _522
REMARK  216  A    between atoms: _522  and  _523
REMARK  217  A    between atoms: _528  and  _530
REMARK  218  A    between atoms: _530  and  _531
REMARK  219  A    between atoms: _530  and  _533
REMARK  220  A    between atoms: _536  and  _538
REMARK  221  A    between atoms: _538  and  _539
REMARK  222  A    between atoms: _538  and  _541
REMARK  223  A    between atoms: _541  and  _542
REMARK  224  A    between atoms: _545  and  _547
REMARK  225  A    between atoms: _547  and  _548
REMARK  226  A    between atoms: _550  and  _552
REMARK  227  A    between atoms: _552  and  _553
REMARK  228  A    between atoms: _552  and  _555
REMARK  229  A    between atoms: _555  and  _556
REMARK  230  A    between atoms: _556  and  _557
REMARK  231  A    between atoms: _557  and  _558
REMARK  232  A    between atoms: _567  and  _569
REMARK  233  A    between atoms: _569  and  _570
REMARK  234  A    between atoms: _569  and  _572
REMARK  235  A    between atoms: _572  and  _573
REMARK                            x       y       z     vdW  Elec       q    Type
REMARK                         _______ _______ _______ _____ _____    ______ ____
ROOT
ATOM      1  O   HOH     1      14.187  27.565  11.191  0.00  0.00    +0.000 OA
ENDROOT
TORSDOF 0
