REMARK  Name = ../refined-set-2016/4lk7/4lk7_pocket.pdb
REMARK  89 active torsions:
REMARK  status: ('A' for Active; 'I' for Inactive)
REMARK    1  A    between atoms: _1  and  _3
REMARK    2  A    between atoms: _3  and  _4
REMARK    3  A    between atoms: _3  and  _6
REMARK    4  A    between atoms: _6  and  _7
REMARK    5  A    between atoms: _9  and  _11
REMARK    6  A    between atoms: _11  and  _12
REMARK    7  A    between atoms: _11  and  _14
REMARK    8  A    between atoms: _14  and  _15
REMARK    9  A    between atoms: _20  and  _21
REMARK   10  A    between atoms: _23  and  _25
REMARK   11  A    between atoms: _25  and  _26
REMARK   12  A    between atoms: _29  and  _30
REMARK   13  A    between atoms: _35  and  _37
REMARK   14  A    between atoms: _37  and  _38
REMARK   15  A    between atoms: _37  and  _40
REMARK   16  A    between atoms: _40  and  _41
REMARK   17  A    between atoms: _44  and  _46
REMARK   18  A    between atoms: _46  and  _47
REMARK   19  A    between atoms: _46  and  _49
REMARK   20  A    between atoms: _49  and  _50
REMARK   21  A    between atoms: _50  and  _51
REMARK   22  A    between atoms: _56  and  _58
REMARK   23  A    between atoms: _58  and  _59
REMARK   24  A    between atoms: _58  and  _61
REMARK   25  A    between atoms: _61  and  _62
REMARK   26  A    between atoms: _72  and  _74
REMARK   27  A    between atoms: _74  and  _75
REMARK   28  A    between atoms: _74  and  _77
REMARK   29  A    between atoms: _77  and  _78
REMARK   30  A    between atoms: _81  and  _83
REMARK   31  A    between atoms: _83  and  _84
REMARK   32  A    between atoms: _83  and  _86
REMARK   33  A    between atoms: _86  and  _87
REMARK   34  A    between atoms: _87  and  _88
REMARK   35  A    between atoms: _91  and  _93
REMARK   36  A    between atoms: _93  and  _94
REMARK   37  A    between atoms: _93  and  _96
REMARK   38  A    between atoms: _96  and  _97
REMARK   39  A    between atoms: _103  and  _104
REMARK   40  A    between atoms: _109  and  _111
REMARK   41  A    between atoms: _111  and  _112
REMARK   42  A    between atoms: _111  and  _114
REMARK   43  A    between atoms: _114  and  _115
REMARK   44  A    between atoms: _118  and  _120
REMARK   45  A    between atoms: _120  and  _121
REMARK   46  A    between atoms: _120  and  _123
REMARK   47  A    between atoms: _123  and  _124
REMARK   48  A    between atoms: _124  and  _125
REMARK   49  A    between atoms: _130  and  _132
REMARK   50  A    between atoms: _132  and  _133
REMARK   51  A    between atoms: _135  and  _137
REMARK   52  A    between atoms: _137  and  _138
REMARK   53  A    between atoms: _137  and  _140
REMARK   54  A    between atoms: _140  and  _141
REMARK   55  A    between atoms: _144  and  _146
REMARK   56  A    between atoms: _146  and  _147
REMARK   57  A    between atoms: _146  and  _149
REMARK   58  A    between atoms: _151  and  _153
REMARK   59  A    between atoms: _153  and  _154
REMARK   60  A    between atoms: _156  and  _158
REMARK   61  A    between atoms: _158  and  _159
REMARK   62  A    between atoms: _158  and  _161
REMARK   63  A    between atoms: _161  and  _162
REMARK   64  A    between atoms: _167  and  _168
REMARK   65  A    between atoms: _170  and  _172
REMARK   66  A    between atoms: _172  and  _173
REMARK   67  A    between atoms: _172  and  _175
REMARK   68  A    between atoms: _175  and  _176
REMARK   69  A    between atoms: _181  and  _183
REMARK   70  A    between atoms: _183  and  _184
REMARK   71  A    between atoms: _183  and  _186
REMARK   72  A    between atoms: _186  and  _187
REMARK   73  A    between atoms: _190  and  _192
REMARK   74  A    between atoms: _192  and  _193
REMARK   75  A    between atoms: _192  and  _195
REMARK   76  A    between atoms: _199  and  _200
REMARK   77  A    between atoms: _205  and  _207
REMARK   78  A    between atoms: _207  and  _208
REMARK   79  A    between atoms: _210  and  _212
REMARK   80  A    between atoms: _212  and  _213
REMARK   81  A    between atoms: _212  and  _215
REMARK   82  A    between atoms: _215  and  _216
REMARK   83  A    between atoms: _221  and  _224
REMARK   84  A    between atoms: _224  and  _225
REMARK   85  A    between atoms: _230  and  _231
REMARK   86  A    between atoms: _240  and  _243
REMARK   87  A    between atoms: _243  and  _244
REMARK   88  A    between atoms: _251  and  _252
REMARK   89  A    between atoms: _255  and  _257
REMARK                            x       y       z     vdW  Elec       q    Type
REMARK                         _______ _______ _______ _____ _____    ______ ____
ROOT
ATOM      1  C   GLY A   3      11.947   9.131  35.861  0.00  0.00    +0.246 C 
ATOM      2  O   GLY A   3      11.605   8.373  36.773  0.00  0.00    -0.273 OA
ATOM      3  N   PRO A   4      11.396  10.340  35.686  0.00  0.00    -0.272 N 
ATOM      4  CA  PRO A   4      10.315  10.796  36.570  0.00  0.00    +0.152 C 
ATOM      5  CB  PRO A   4       9.952  12.165  35.989  0.00  0.00    +0.031 C 
ATOM      6  CG  PRO A   4      11.242  12.643  35.388  0.00  0.00    +0.024 C 
ATOM      7  CD  PRO A   4      11.847  11.406  34.774  0.00  0.00    +0.094 C 
ENDROOT
BRANCH   4   8
ATOM      8  C   PRO A   4       9.094   9.885  36.555  0.00  0.00    +0.241 C 
ATOM      9  N   THR A   5       8.254  10.020  37.576  0.00  0.00    -0.295 N 
ATOM     10  H   THR A   5       8.462  10.701  38.334  0.00  0.00    +0.150 HD
ATOM     11  O   PRO A   4       8.906   9.077  35.636  0.00  0.00    -0.273 OA
BRANCH   9  12
ATOM     12  CA  THR A   5       7.046   9.217  37.633  0.00  0.00    +0.176 C 
BRANCH  12  13
ATOM     13  C   THR A   5       6.109   9.512  36.455  0.00  0.00    +0.243 C 
ATOM     14  N   GLN A   6       6.100  10.758  35.987  0.00  0.00    -0.298 N 
ATOM     15  H   GLN A   6       6.702  11.476  36.438  0.00  0.00    +0.150 HD
ATOM     16  O   THR A   5       5.416   8.616  35.975  0.00  0.00    -0.273 OA
BRANCH  14  17
ATOM     17  CA  GLN A   6       5.260  11.138  34.850  0.00  0.00    +0.137 C 
BRANCH  17  18
ATOM     18  C   GLN A   6       5.705  10.400  33.598  0.00  0.00    +0.227 C 
ATOM     19  O   GLN A   6       6.865  10.019  33.481  0.00  0.00    -0.286 OA
ENDBRANCH  17  18
BRANCH  17  20
ATOM     20  CB  GLN A   6       5.387  12.630  34.538  0.00  0.00    +0.037 C 
BRANCH  20  21
ATOM     21  CG  GLN A   6       5.109  13.592  35.662  0.00  0.00    +0.087 C 
BRANCH  21  22
ATOM     22  CD  GLN A   6       5.787  14.936  35.415  0.00  0.00    +0.219 C 
ATOM     23  OE1 GLN A   6       6.650  15.370  36.199  0.00  0.00    -0.275 OA
ATOM     24  NE2 GLN A   6       5.425  15.587  34.305  0.00  0.00    -0.329 N 
ATOM     25 HE21 GLN A   6       5.870  16.496  34.067  0.00  0.00    +0.145 HD
ATOM     26 HE22 GLN A   6       4.698  15.184  33.680  0.00  0.00    +0.145 HD
ENDBRANCH  21  22
ENDBRANCH  20  21
ENDBRANCH  17  20
ENDBRANCH  14  17
ENDBRANCH  12  13
BRANCH  12  27
ATOM     27  CB  THR A   5       6.324   9.376  38.990  0.00  0.00    +0.137 C 
ATOM     28  CG2 THR A   5       7.263   8.983  40.086  0.00  0.00    +0.034 C 
BRANCH  27  29
ATOM     29  OG1 THR A   5       5.932  10.742  39.178  0.00  0.00    -0.382 OA
ATOM     30  HG1 THR A   5       5.471  10.835  40.049  0.00  0.00    +0.210 HD
ENDBRANCH  27  29
ENDBRANCH  12  27
ENDBRANCH   9  12
ENDBRANCH   4   8
BRANCH   1  31
ATOM     31  CA  GLY A   3      13.053   8.731  34.904  0.00  0.00    +0.176 C 
BRANCH  31  33
ATOM     32  C   TYR A   2      13.651   8.906  32.571  0.00  0.00    +0.241 C 
ATOM     33  N   GLY A   3      12.698   8.797  33.489  0.00  0.00    -0.295 N 
ATOM     34  H   GLY A   3      11.700   8.759  33.201  0.00  0.00    +0.150 HD
ATOM     35  O   TYR A   2      14.841   9.009  32.866  0.00  0.00    -0.273 OA
BRANCH  32  36
ATOM     36  CA  TYR A   2      13.215   8.910  31.103  0.00  0.00    +0.153 C 
BRANCH  36  38
ATOM     37  C   SER A   1      11.013   7.897  30.832  0.00  0.00    +0.241 C 
ATOM     38  N   TYR A   2      11.761   8.978  31.013  0.00  0.00    -0.297 N 
ATOM     39  H   TYR A   2      11.295   9.904  31.093  0.00  0.00    +0.150 HD
ATOM     40  O   SER A   1      11.476   6.764  30.687  0.00  0.00    -0.274 OA
BRANCH  37  41
ATOM     41  CA  SER A   1       9.518   8.127  30.856  0.00  0.00    +0.174 C 
BRANCH  41  42
ATOM     42  N   SER A   1       8.815   7.160  30.026  0.00  0.00    -0.236 NA
ATOM     43  H   SER A   1       9.080   6.155  30.070  0.00  0.00    +0.142 HD
ENDBRANCH  41  42
BRANCH  41  44
ATOM     44  CB  SER A   1       9.019   8.077  32.311  0.00  0.00    +0.163 C 
BRANCH  44  45
ATOM     45  OG  SER A   1       9.820   8.920  33.126  0.00  0.00    -0.380 OA
ATOM     46  H   SER A   1       9.493   8.882  34.060  0.00  0.00    +0.211 HD
ENDBRANCH  44  45
ENDBRANCH  41  44
ENDBRANCH  37  41
ENDBRANCH  36  38
BRANCH  36  47
ATOM     47  CB  TYR A   2      13.838  10.108  30.396  0.00  0.00    +0.055 C 
BRANCH  47  48
ATOM     48  CG  TYR A   2      13.248  11.432  30.838  0.00  0.00    -0.020 A 
ATOM     49  CD2 TYR A   2      13.840  12.170  31.859  0.00  0.00    -0.001 A 
ATOM     50  CE2 TYR A   2      13.313  13.376  32.269  0.00  0.00    +0.036 A 
ATOM     51  CZ  TYR A   2      12.170  13.869  31.670  0.00  0.00    +0.134 A 
ATOM     52  CE1 TYR A   2      11.554  13.163  30.654  0.00  0.00    +0.036 A 
ATOM     53  CD1 TYR A   2      12.100  11.945  30.235  0.00  0.00    -0.001 A 
BRANCH  51  54
ATOM     54  OH  TYR A   2      11.664  15.078  32.095  0.00  0.00    -0.506 OA
ATOM     55  HH  TYR A   2      10.850  15.295  31.575  0.00  0.00    +0.292 HD
ENDBRANCH  51  54
ENDBRANCH  47  48
ENDBRANCH  36  47
ENDBRANCH  32  36
ENDBRANCH  31  33
ENDBRANCH   1  31
TORSDOF 21
REMARK  Name = ../refined-set-2016/4lk7/4lk7_pocket.pdb
REMARK  89 active torsions:
REMARK  status: ('A' for Active; 'I' for Inactive)
REMARK    1  A    between atoms: _1  and  _3
REMARK    2  A    between atoms: _3  and  _4
REMARK    3  A    between atoms: _3  and  _6
REMARK    4  A    between atoms: _6  and  _7
REMARK    5  A    between atoms: _9  and  _11
REMARK    6  A    between atoms: _11  and  _12
REMARK    7  A    between atoms: _11  and  _14
REMARK    8  A    between atoms: _14  and  _15
REMARK    9  A    between atoms: _20  and  _21
REMARK   10  A    between atoms: _23  and  _25
REMARK   11  A    between atoms: _25  and  _26
REMARK   12  A    between atoms: _29  and  _30
REMARK   13  A    between atoms: _35  and  _37
REMARK   14  A    between atoms: _37  and  _38
REMARK   15  A    between atoms: _37  and  _40
REMARK   16  A    between atoms: _40  and  _41
REMARK   17  A    between atoms: _44  and  _46
REMARK   18  A    between atoms: _46  and  _47
REMARK   19  A    between atoms: _46  and  _49
REMARK   20  A    between atoms: _49  and  _50
REMARK   21  A    between atoms: _50  and  _51
REMARK   22  A    between atoms: _56  and  _58
REMARK   23  A    between atoms: _58  and  _59
REMARK   24  A    between atoms: _58  and  _61
REMARK   25  A    between atoms: _61  and  _62
REMARK   26  A    between atoms: _72  and  _74
REMARK   27  A    between atoms: _74  and  _75
REMARK   28  A    between atoms: _74  and  _77
REMARK   29  A    between atoms: _77  and  _78
REMARK   30  A    between atoms: _81  and  _83
REMARK   31  A    between atoms: _83  and  _84
REMARK   32  A    between atoms: _83  and  _86
REMARK   33  A    between atoms: _86  and  _87
REMARK   34  A    between atoms: _87  and  _88
REMARK   35  A    between atoms: _91  and  _93
REMARK   36  A    between atoms: _93  and  _94
REMARK   37  A    between atoms: _93  and  _96
REMARK   38  A    between atoms: _96  and  _97
REMARK   39  A    between atoms: _103  and  _104
REMARK   40  A    between atoms: _109  and  _111
REMARK   41  A    between atoms: _111  and  _112
REMARK   42  A    between atoms: _111  and  _114
REMARK   43  A    between atoms: _114  and  _115
REMARK   44  A    between atoms: _118  and  _120
REMARK   45  A    between atoms: _120  and  _121
REMARK   46  A    between atoms: _120  and  _123
REMARK   47  A    between atoms: _123  and  _124
REMARK   48  A    between atoms: _124  and  _125
REMARK   49  A    between atoms: _130  and  _132
REMARK   50  A    between atoms: _132  and  _133
REMARK   51  A    between atoms: _135  and  _137
REMARK   52  A    between atoms: _137  and  _138
REMARK   53  A    between atoms: _137  and  _140
REMARK   54  A    between atoms: _140  and  _141
REMARK   55  A    between atoms: _144  and  _146
REMARK   56  A    between atoms: _146  and  _147
REMARK   57  A    between atoms: _146  and  _149
REMARK   58  A    between atoms: _151  and  _153
REMARK   59  A    between atoms: _153  and  _154
REMARK   60  A    between atoms: _156  and  _158
REMARK   61  A    between atoms: _158  and  _159
REMARK   62  A    between atoms: _158  and  _161
REMARK   63  A    between atoms: _161  and  _162
REMARK   64  A    between atoms: _167  and  _168
REMARK   65  A    between atoms: _170  and  _172
REMARK   66  A    between atoms: _172  and  _173
REMARK   67  A    between atoms: _172  and  _175
REMARK   68  A    between atoms: _175  and  _176
REMARK   69  A    between atoms: _181  and  _183
REMARK   70  A    between atoms: _183  and  _184
REMARK   71  A    between atoms: _183  and  _186
REMARK   72  A    between atoms: _186  and  _187
REMARK   73  A    between atoms: _190  and  _192
REMARK   74  A    between atoms: _192  and  _193
REMARK   75  A    between atoms: _192  and  _195
REMARK   76  A    between atoms: _199  and  _200
REMARK   77  A    between atoms: _205  and  _207
REMARK   78  A    between atoms: _207  and  _208
REMARK   79  A    between atoms: _210  and  _212
REMARK   80  A    between atoms: _212  and  _213
REMARK   81  A    between atoms: _212  and  _215
REMARK   82  A    between atoms: _215  and  _216
REMARK   83  A    between atoms: _221  and  _224
REMARK   84  A    between atoms: _224  and  _225
REMARK   85  A    between atoms: _230  and  _231
REMARK   86  A    between atoms: _240  and  _243
REMARK   87  A    between atoms: _243  and  _244
REMARK   88  A    between atoms: _251  and  _252
REMARK   89  A    between atoms: _255  and  _257
REMARK                            x       y       z     vdW  Elec       q    Type
REMARK                         _______ _______ _______ _____ _____    ______ ____
ROOT
ATOM      1  CG  TRP A   1       6.645  13.423  28.861  0.00  0.00    -0.002 A 
ATOM      2  CD2 TRP A   1       7.327  13.229  30.110  0.00  0.00    +0.013 A 
ATOM      3  CE2 TRP A   1       7.242  14.441  30.823  0.00  0.00    +0.056 A 
ATOM      4  CZ2 TRP A   1       7.803  14.607  32.093  0.00  0.00    +0.017 A 
ATOM      5  CH2 TRP A   1       8.466  13.537  32.635  0.00  0.00    +0.001 A 
ATOM      6  CZ3 TRP A   1       8.576  12.316  31.948  0.00  0.00    +0.000 A 
ATOM      7  NE1 TRP A   1       6.546  15.328  30.046  0.00  0.00    -0.352 N 
ATOM      8  HE1 TRP A   1       6.326  16.312  30.301  0.00  0.00    +0.166 HD
ATOM      9  CE3 TRP A   1       7.999  12.146  30.692  0.00  0.00    +0.001 A 
ATOM     10  CD1 TRP A   1       6.185  14.706  28.872  0.00  0.00    +0.068 A 
ENDROOT
BRANCH   1  11
ATOM     11  CB  TRP A   1       6.474  12.419  27.765  0.00  0.00    +0.053 C 
BRANCH  11  12
ATOM     12  CA  TRP A   1       5.263  11.496  27.956  0.00  0.00    +0.137 C 
BRANCH  12  13
ATOM     13  N   TRP A   1       5.483  10.621  29.098  0.00  0.00    -0.239 NA
ATOM     14  H   TRP A   1       6.198   9.870  29.020  0.00  0.00    +0.142 HD
ENDBRANCH  12  13
BRANCH  12  15
ATOM     15  C   TRP A   1       5.040  10.689  26.690  0.00  0.00    +0.224 C 
ATOM     16  O   TRP A   1       5.421   9.517  26.603  0.00  0.00    -0.287 OA
ENDBRANCH  12  15
ENDBRANCH  11  12
ENDBRANCH   1  11
TORSDOF 4
REMARK  Name = ../refined-set-2016/4lk7/4lk7_pocket.pdb
REMARK  89 active torsions:
REMARK  status: ('A' for Active; 'I' for Inactive)
REMARK    1  A    between atoms: _1  and  _3
REMARK    2  A    between atoms: _3  and  _4
REMARK    3  A    between atoms: _3  and  _6
REMARK    4  A    between atoms: _6  and  _7
REMARK    5  A    between atoms: _9  and  _11
REMARK    6  A    between atoms: _11  and  _12
REMARK    7  A    between atoms: _11  and  _14
REMARK    8  A    between atoms: _14  and  _15
REMARK    9  A    between atoms: _20  and  _21
REMARK   10  A    between atoms: _23  and  _25
REMARK   11  A    between atoms: _25  and  _26
REMARK   12  A    between atoms: _29  and  _30
REMARK   13  A    between atoms: _35  and  _37
REMARK   14  A    between atoms: _37  and  _38
REMARK   15  A    between atoms: _37  and  _40
REMARK   16  A    between atoms: _40  and  _41
REMARK   17  A    between atoms: _44  and  _46
REMARK   18  A    between atoms: _46  and  _47
REMARK   19  A    between atoms: _46  and  _49
REMARK   20  A    between atoms: _49  and  _50
REMARK   21  A    between atoms: _50  and  _51
REMARK   22  A    between atoms: _56  and  _58
REMARK   23  A    between atoms: _58  and  _59
REMARK   24  A    between atoms: _58  and  _61
REMARK   25  A    between atoms: _61  and  _62
REMARK   26  A    between atoms: _72  and  _74
REMARK   27  A    between atoms: _74  and  _75
REMARK   28  A    between atoms: _74  and  _77
REMARK   29  A    between atoms: _77  and  _78
REMARK   30  A    between atoms: _81  and  _83
REMARK   31  A    between atoms: _83  and  _84
REMARK   32  A    between atoms: _83  and  _86
REMARK   33  A    between atoms: _86  and  _87
REMARK   34  A    between atoms: _87  and  _88
REMARK   35  A    between atoms: _91  and  _93
REMARK   36  A    between atoms: _93  and  _94
REMARK   37  A    between atoms: _93  and  _96
REMARK   38  A    between atoms: _96  and  _97
REMARK   39  A    between atoms: _103  and  _104
REMARK   40  A    between atoms: _109  and  _111
REMARK   41  A    between atoms: _111  and  _112
REMARK   42  A    between atoms: _111  and  _114
REMARK   43  A    between atoms: _114  and  _115
REMARK   44  A    between atoms: _118  and  _120
REMARK   45  A    between atoms: _120  and  _121
REMARK   46  A    between atoms: _120  and  _123
REMARK   47  A    between atoms: _123  and  _124
REMARK   48  A    between atoms: _124  and  _125
REMARK   49  A    between atoms: _130  and  _132
REMARK   50  A    between atoms: _132  and  _133
REMARK   51  A    between atoms: _135  and  _137
REMARK   52  A    between atoms: _137  and  _138
REMARK   53  A    between atoms: _137  and  _140
REMARK   54  A    between atoms: _140  and  _141
REMARK   55  A    between atoms: _144  and  _146
REMARK   56  A    between atoms: _146  and  _147
REMARK   57  A    between atoms: _146  and  _149
REMARK   58  A    between atoms: _151  and  _153
REMARK   59  A    between atoms: _153  and  _154
REMARK   60  A    between atoms: _156  and  _158
REMARK   61  A    between atoms: _158  and  _159
REMARK   62  A    between atoms: _158  and  _161
REMARK   63  A    between atoms: _161  and  _162
REMARK   64  A    between atoms: _167  and  _168
REMARK   65  A    between atoms: _170  and  _172
REMARK   66  A    between atoms: _172  and  _173
REMARK   67  A    between atoms: _172  and  _175
REMARK   68  A    between atoms: _175  and  _176
REMARK   69  A    between atoms: _181  and  _183
REMARK   70  A    between atoms: _183  and  _184
REMARK   71  A    between atoms: _183  and  _186
REMARK   72  A    between atoms: _186  and  _187
REMARK   73  A    between atoms: _190  and  _192
REMARK   74  A    between atoms: _192  and  _193
REMARK   75  A    between atoms: _192  and  _195
REMARK   76  A    between atoms: _199  and  _200
REMARK   77  A    between atoms: _205  and  _207
REMARK   78  A    between atoms: _207  and  _208
REMARK   79  A    between atoms: _210  and  _212
REMARK   80  A    between atoms: _212  and  _213
REMARK   81  A    between atoms: _212  and  _215
REMARK   82  A    between atoms: _215  and  _216
REMARK   83  A    between atoms: _221  and  _224
REMARK   84  A    between atoms: _224  and  _225
REMARK   85  A    between atoms: _230  and  _231
REMARK   86  A    between atoms: _240  and  _243
REMARK   87  A    between atoms: _243  and  _244
REMARK   88  A    between atoms: _251  and  _252
REMARK   89  A    between atoms: _255  and  _257
REMARK                            x       y       z     vdW  Elec       q    Type
REMARK                         _______ _______ _______ _____ _____    ______ ____
ROOT
ATOM      1  CA  ASP A   1       9.062  16.429  27.303  0.00  0.00    +0.144 C 
ENDROOT
BRANCH   1   2
ATOM      2  N   ASP A   1       9.353  15.376  26.327  0.00  0.00    -0.239 NA
ATOM      3  H   ASP A   1      10.320  14.997  26.281  0.00  0.00    +0.142 HD
ENDBRANCH   1   2
BRANCH   1   4
ATOM      4  C   ASP A   1       9.631  17.777  26.840  0.00  0.00    +0.225 C 
ATOM      5  O   ASP A   1      10.840  18.002  26.863  0.00  0.00    -0.287 OA
ENDBRANCH   1   4
BRANCH   1   6
ATOM      6  CB  ASP A   1       9.640  15.996  28.666  0.00  0.00    +0.139 C 
BRANCH   6   7
ATOM      7  CG  ASP A   1       9.423  17.019  29.779  0.00  0.00    +0.367 C 
ATOM      8  OD2 ASP A   1       9.916  16.750  30.887  0.00  0.00    -0.246 OA
ATOM      9  OD1 ASP A   1       8.763  18.060  29.570  0.00  0.00    -0.246 OA
ENDBRANCH   6   7
ENDBRANCH   1   6
TORSDOF 4
REMARK  Name = ../refined-set-2016/4lk7/4lk7_pocket.pdb
REMARK  89 active torsions:
REMARK  status: ('A' for Active; 'I' for Inactive)
REMARK    1  A    between atoms: _1  and  _3
REMARK    2  A    between atoms: _3  and  _4
REMARK    3  A    between atoms: _3  and  _6
REMARK    4  A    between atoms: _6  and  _7
REMARK    5  A    between atoms: _9  and  _11
REMARK    6  A    between atoms: _11  and  _12
REMARK    7  A    between atoms: _11  and  _14
REMARK    8  A    between atoms: _14  and  _15
REMARK    9  A    between atoms: _20  and  _21
REMARK   10  A    between atoms: _23  and  _25
REMARK   11  A    between atoms: _25  and  _26
REMARK   12  A    between atoms: _29  and  _30
REMARK   13  A    between atoms: _35  and  _37
REMARK   14  A    between atoms: _37  and  _38
REMARK   15  A    between atoms: _37  and  _40
REMARK   16  A    between atoms: _40  and  _41
REMARK   17  A    between atoms: _44  and  _46
REMARK   18  A    between atoms: _46  and  _47
REMARK   19  A    between atoms: _46  and  _49
REMARK   20  A    between atoms: _49  and  _50
REMARK   21  A    between atoms: _50  and  _51
REMARK   22  A    between atoms: _56  and  _58
REMARK   23  A    between atoms: _58  and  _59
REMARK   24  A    between atoms: _58  and  _61
REMARK   25  A    between atoms: _61  and  _62
REMARK   26  A    between atoms: _72  and  _74
REMARK   27  A    between atoms: _74  and  _75
REMARK   28  A    between atoms: _74  and  _77
REMARK   29  A    between atoms: _77  and  _78
REMARK   30  A    between atoms: _81  and  _83
REMARK   31  A    between atoms: _83  and  _84
REMARK   32  A    between atoms: _83  and  _86
REMARK   33  A    between atoms: _86  and  _87
REMARK   34  A    between atoms: _87  and  _88
REMARK   35  A    between atoms: _91  and  _93
REMARK   36  A    between atoms: _93  and  _94
REMARK   37  A    between atoms: _93  and  _96
REMARK   38  A    between atoms: _96  and  _97
REMARK   39  A    between atoms: _103  and  _104
REMARK   40  A    between atoms: _109  and  _111
REMARK   41  A    between atoms: _111  and  _112
REMARK   42  A    between atoms: _111  and  _114
REMARK   43  A    between atoms: _114  and  _115
REMARK   44  A    between atoms: _118  and  _120
REMARK   45  A    between atoms: _120  and  _121
REMARK   46  A    between atoms: _120  and  _123
REMARK   47  A    between atoms: _123  and  _124
REMARK   48  A    between atoms: _124  and  _125
REMARK   49  A    between atoms: _130  and  _132
REMARK   50  A    between atoms: _132  and  _133
REMARK   51  A    between atoms: _135  and  _137
REMARK   52  A    between atoms: _137  and  _138
REMARK   53  A    between atoms: _137  and  _140
REMARK   54  A    between atoms: _140  and  _141
REMARK   55  A    between atoms: _144  and  _146
REMARK   56  A    between atoms: _146  and  _147
REMARK   57  A    between atoms: _146  and  _149
REMARK   58  A    between atoms: _151  and  _153
REMARK   59  A    between atoms: _153  and  _154
REMARK   60  A    between atoms: _156  and  _158
REMARK   61  A    between atoms: _158  and  _159
REMARK   62  A    between atoms: _158  and  _161
REMARK   63  A    between atoms: _161  and  _162
REMARK   64  A    between atoms: _167  and  _168
REMARK   65  A    between atoms: _170  and  _172
REMARK   66  A    between atoms: _172  and  _173
REMARK   67  A    between atoms: _172  and  _175
REMARK   68  A    between atoms: _175  and  _176
REMARK   69  A    between atoms: _181  and  _183
REMARK   70  A    between atoms: _183  and  _184
REMARK   71  A    between atoms: _183  and  _186
REMARK   72  A    between atoms: _186  and  _187
REMARK   73  A    between atoms: _190  and  _192
REMARK   74  A    between atoms: _192  and  _193
REMARK   75  A    between atoms: _192  and  _195
REMARK   76  A    between atoms: _199  and  _200
REMARK   77  A    between atoms: _205  and  _207
REMARK   78  A    between atoms: _207  and  _208
REMARK   79  A    between atoms: _210  and  _212
REMARK   80  A    between atoms: _212  and  _213
REMARK   81  A    between atoms: _212  and  _215
REMARK   82  A    between atoms: _215  and  _216
REMARK   83  A    between atoms: _221  and  _224
REMARK   84  A    between atoms: _224  and  _225
REMARK   85  A    between atoms: _230  and  _231
REMARK   86  A    between atoms: _240  and  _243
REMARK   87  A    between atoms: _243  and  _244
REMARK   88  A    between atoms: _251  and  _252
REMARK   89  A    between atoms: _255  and  _257
REMARK                            x       y       z     vdW  Elec       q    Type
REMARK                         _______ _______ _______ _____ _____    ______ ____
ROOT
ATOM      1  CA  ASP A   4      18.984  18.649  26.737  0.00  0.00    +0.160 C 
ENDROOT
BRANCH   1   2
ATOM      2  C   ASP A   4      20.264  18.493  27.545  0.00  0.00    +0.241 C 
ATOM      3  N   GLN A   5      20.430  17.341  28.187  0.00  0.00    -0.297 N 
ATOM      4  H   GLN A   5      19.717  16.592  28.081  0.00  0.00    +0.150 HD
ATOM      5  O   ASP A   4      21.086  19.408  27.589  0.00  0.00    -0.273 OA
BRANCH   3   6
ATOM      6  CA  GLN A   5      21.593  17.106  29.038  0.00  0.00    +0.149 C 
BRANCH   6   7
ATOM      7  C   GLN A   5      22.627  16.185  28.388  0.00  0.00    +0.241 C 
ATOM      8  O   GLN A   5      23.432  15.558  29.076  0.00  0.00    -0.273 OA
ATOM      9  N   GLY A   6      22.602  16.129  27.059  0.00  0.00    -0.295 N 
ATOM     10  H   GLY A   6      21.907  16.713  26.552  0.00  0.00    +0.150 HD
BRANCH   9  11
ATOM     11  CA  GLY A   6      23.499  15.291  26.280  0.00  0.00    +0.176 C 
BRANCH  11  12
ATOM     12  C   GLY A   6      22.766  14.162  25.581  0.00  0.00    +0.243 C 
ATOM     13  O   GLY A   6      23.246  13.030  25.550  0.00  0.00    -0.273 OA
ATOM     14  N   LEU A   7      21.595  14.477  25.021  0.00  0.00    -0.298 N 
ATOM     15  H   LEU A   7      21.277  15.467  25.046  0.00  0.00    +0.150 HD
BRANCH  14  16
ATOM     16  CA  LEU A   7      20.743  13.478  24.373  0.00  0.00    +0.137 C 
BRANCH  16  17
ATOM     17  C   LEU A   7      21.383  12.917  23.110  0.00  0.00    +0.227 C 
ATOM     18  O   LEU A   7      22.140  13.611  22.430  0.00  0.00    -0.286 OA
ENDBRANCH  16  17
BRANCH  16  19
ATOM     19  CB  LEU A   7      19.385  14.094  24.012  0.00  0.00    +0.028 C 
BRANCH  19  20
ATOM     20  CG  LEU A   7      18.555  14.622  25.186  0.00  0.00    +0.002 C 
ATOM     21  CD2 LEU A   7      18.053  13.463  26.025  0.00  0.00    +0.000 C 
ATOM     22  CD1 LEU A   7      17.391  15.485  24.675  0.00  0.00    +0.000 C 
ENDBRANCH  19  20
ENDBRANCH  16  19
ENDBRANCH  14  16
ENDBRANCH  11  12
ENDBRANCH   9  11
ENDBRANCH   6   7
BRANCH   6  23
ATOM     23  CB  GLN A   5      21.153  16.560  30.400  0.00  0.00    +0.039 C 
BRANCH  23  24
ATOM     24  CG  GLN A   5      20.228  17.505  31.154  0.00  0.00    +0.087 C 
BRANCH  24  25
ATOM     25  CD  GLN A   5      19.922  17.025  32.560  0.00  0.00    +0.219 C 
ATOM     26  NE2 GLN A   5      20.166  17.886  33.545  0.00  0.00    -0.329 N 
ATOM     27 HE21 GLN A   5      19.969  17.618  34.530  0.00  0.00    +0.145 HD
ATOM     28 HE22 GLN A   5      20.554  18.827  33.329  0.00  0.00    +0.145 HD
ATOM     29  OE1 GLN A   5      19.463  15.898  32.760  0.00  0.00    -0.275 OA
ENDBRANCH  24  25
ENDBRANCH  23  24
ENDBRANCH   6  23
ENDBRANCH   3   6
ENDBRANCH   1   2
BRANCH   1  32
ATOM     30  C   PRO A   3      17.404  19.361  28.465  0.00  0.00    +0.241 C 
ATOM     31  O   PRO A   3      17.239  18.217  28.897  0.00  0.00    -0.273 OA
ATOM     32  N   ASP A   4      18.163  19.649  27.409  0.00  0.00    -0.297 N 
ATOM     33  H   ASP A   4      18.170  20.625  27.050  0.00  0.00    +0.150 HD
BRANCH  30  39
ATOM     34  C   HIS A   2      14.416  19.826  29.072  0.00  0.00    +0.244 C 
ATOM     35  N   PRO A   3      15.474  20.157  29.825  0.00  0.00    -0.272 N 
ATOM     36  CD  PRO A   3      15.561  20.322  31.284  0.00  0.00    +0.094 C 
ATOM     37  CG  PRO A   3      17.048  20.464  31.518  0.00  0.00    +0.024 C 
ATOM     38  CB  PRO A   3      17.592  21.086  30.284  0.00  0.00    +0.031 C 
ATOM     39  CA  PRO A   3      16.716  20.542  29.143  0.00  0.00    +0.152 C 
ATOM     40  O   HIS A   2      14.457  19.857  27.846  0.00  0.00    -0.273 OA
BRANCH  34  41
ATOM     41  CA  HIS A   2      13.134  19.418  29.806  0.00  0.00    +0.155 C 
BRANCH  41  44
ATOM     42  C   GLU A   1      11.427  21.161  29.689  0.00  0.00    +0.238 C 
ATOM     43  O   GLU A   1      12.041  21.898  30.460  0.00  0.00    -0.274 OA
ATOM     44  N   HIS A   2      11.935  20.026  29.224  0.00  0.00    -0.297 N 
ATOM     45  H   HIS A   2      11.468  19.555  28.423  0.00  0.00    +0.150 HD
BRANCH  42  46
ATOM     46  CA  GLU A   1      10.015  21.515  29.226  0.00  0.00    +0.145 C 
BRANCH  46  47
ATOM     47  N   GLU A   1       9.544  20.640  28.150  0.00  0.00    -0.238 NA
ATOM     48  H   GLU A   1       9.001  19.789  28.398  0.00  0.00    +0.142 HD
ENDBRANCH  46  47
BRANCH  46  49
ATOM     49  CB  GLU A   1       9.085  21.435  30.446  0.00  0.00    +0.038 C 
BRANCH  49  50
ATOM     50  CG  GLU A   1       7.690  22.036  30.283  0.00  0.00    +0.116 C 
BRANCH  50  51
ATOM     51  CD  GLU A   1       6.888  22.009  31.591  0.00  0.00    +0.365 C 
ATOM     52  OE2 GLU A   1       7.472  21.674  32.649  0.00  0.00    -0.246 OA
ATOM     53  OE1 GLU A   1       5.673  22.318  31.560  0.00  0.00    -0.246 OA
ENDBRANCH  50  51
ENDBRANCH  49  50
ENDBRANCH  46  49
ENDBRANCH  42  46
ENDBRANCH  41  44
BRANCH  41  54
ATOM     54  CB  HIS A   2      12.973  17.898  29.786  0.00  0.00    +0.076 C 
BRANCH  54  55
ATOM     55  CG  HIS A   2      13.976  17.169  30.609  0.00  0.00    +0.082 A 
ATOM     56  ND1 HIS A   2      13.885  17.071  31.982  0.00  0.00    -0.227 NA
ATOM     57  CE1 HIS A   2      14.908  16.373  32.439  0.00  0.00    +0.199 A 
ATOM     58  NE2 HIS A   2      15.655  16.007  31.411  0.00  0.00    -0.221 NA
ATOM     59  CD2 HIS A   2      15.094  16.491  30.257  0.00  0.00    +0.115 A 
ENDBRANCH  54  55
ENDBRANCH  41  54
ENDBRANCH  34  41
ENDBRANCH  30  39
ENDBRANCH   1  32
BRANCH   1  60
ATOM     60  CB  ASP A   4      19.316  19.118  25.312  0.00  0.00    +0.143 C 
BRANCH  60  61
ATOM     61  CG  ASP A   4      20.160  18.109  24.522  0.00  0.00    +0.367 C 
ATOM     62  OD2 ASP A   4      20.897  17.282  25.111  0.00  0.00    -0.246 OA
ATOM     63  OD1 ASP A   4      20.088  18.156  23.284  0.00  0.00    -0.246 OA
ENDBRANCH  60  61
ENDBRANCH   1  60
TORSDOF 25
REMARK  Name = ../refined-set-2016/4lk7/4lk7_pocket.pdb
REMARK  89 active torsions:
REMARK  status: ('A' for Active; 'I' for Inactive)
REMARK    1  A    between atoms: _1  and  _3
REMARK    2  A    between atoms: _3  and  _4
REMARK    3  A    between atoms: _3  and  _6
REMARK    4  A    between atoms: _6  and  _7
REMARK    5  A    between atoms: _9  and  _11
REMARK    6  A    between atoms: _11  and  _12
REMARK    7  A    between atoms: _11  and  _14
REMARK    8  A    between atoms: _14  and  _15
REMARK    9  A    between atoms: _20  and  _21
REMARK   10  A    between atoms: _23  and  _25
REMARK   11  A    between atoms: _25  and  _26
REMARK   12  A    between atoms: _29  and  _30
REMARK   13  A    between atoms: _35  and  _37
REMARK   14  A    between atoms: _37  and  _38
REMARK   15  A    between atoms: _37  and  _40
REMARK   16  A    between atoms: _40  and  _41
REMARK   17  A    between atoms: _44  and  _46
REMARK   18  A    between atoms: _46  and  _47
REMARK   19  A    between atoms: _46  and  _49
REMARK   20  A    between atoms: _49  and  _50
REMARK   21  A    between atoms: _50  and  _51
REMARK   22  A    between atoms: _56  and  _58
REMARK   23  A    between atoms: _58  and  _59
REMARK   24  A    between atoms: _58  and  _61
REMARK   25  A    between atoms: _61  and  _62
REMARK   26  A    between atoms: _72  and  _74
REMARK   27  A    between atoms: _74  and  _75
REMARK   28  A    between atoms: _74  and  _77
REMARK   29  A    between atoms: _77  and  _78
REMARK   30  A    between atoms: _81  and  _83
REMARK   31  A    between atoms: _83  and  _84
REMARK   32  A    between atoms: _83  and  _86
REMARK   33  A    between atoms: _86  and  _87
REMARK   34  A    between atoms: _87  and  _88
REMARK   35  A    between atoms: _91  and  _93
REMARK   36  A    between atoms: _93  and  _94
REMARK   37  A    between atoms: _93  and  _96
REMARK   38  A    between atoms: _96  and  _97
REMARK   39  A    between atoms: _103  and  _104
REMARK   40  A    between atoms: _109  and  _111
REMARK   41  A    between atoms: _111  and  _112
REMARK   42  A    between atoms: _111  and  _114
REMARK   43  A    between atoms: _114  and  _115
REMARK   44  A    between atoms: _118  and  _120
REMARK   45  A    between atoms: _120  and  _121
REMARK   46  A    between atoms: _120  and  _123
REMARK   47  A    between atoms: _123  and  _124
REMARK   48  A    between atoms: _124  and  _125
REMARK   49  A    between atoms: _130  and  _132
REMARK   50  A    between atoms: _132  and  _133
REMARK   51  A    between atoms: _135  and  _137
REMARK   52  A    between atoms: _137  and  _138
REMARK   53  A    between atoms: _137  and  _140
REMARK   54  A    between atoms: _140  and  _141
REMARK   55  A    between atoms: _144  and  _146
REMARK   56  A    between atoms: _146  and  _147
REMARK   57  A    between atoms: _146  and  _149
REMARK   58  A    between atoms: _151  and  _153
REMARK   59  A    between atoms: _153  and  _154
REMARK   60  A    between atoms: _156  and  _158
REMARK   61  A    between atoms: _158  and  _159
REMARK   62  A    between atoms: _158  and  _161
REMARK   63  A    between atoms: _161  and  _162
REMARK   64  A    between atoms: _167  and  _168
REMARK   65  A    between atoms: _170  and  _172
REMARK   66  A    between atoms: _172  and  _173
REMARK   67  A    between atoms: _172  and  _175
REMARK   68  A    between atoms: _175  and  _176
REMARK   69  A    between atoms: _181  and  _183
REMARK   70  A    between atoms: _183  and  _184
REMARK   71  A    between atoms: _183  and  _186
REMARK   72  A    between atoms: _186  and  _187
REMARK   73  A    between atoms: _190  and  _192
REMARK   74  A    between atoms: _192  and  _193
REMARK   75  A    between atoms: _192  and  _195
REMARK   76  A    between atoms: _199  and  _200
REMARK   77  A    between atoms: _205  and  _207
REMARK   78  A    between atoms: _207  and  _208
REMARK   79  A    between atoms: _210  and  _212
REMARK   80  A    between atoms: _212  and  _213
REMARK   81  A    between atoms: _212  and  _215
REMARK   82  A    between atoms: _215  and  _216
REMARK   83  A    between atoms: _221  and  _224
REMARK   84  A    between atoms: _224  and  _225
REMARK   85  A    between atoms: _230  and  _231
REMARK   86  A    between atoms: _240  and  _243
REMARK   87  A    between atoms: _243  and  _244
REMARK   88  A    between atoms: _251  and  _252
REMARK   89  A    between atoms: _255  and  _257
REMARK                            x       y       z     vdW  Elec       q    Type
REMARK                         _______ _______ _______ _____ _____    ______ ____
ROOT
ATOM      1  C   CYS A   1      12.920  13.331  25.925  0.00  0.00    +0.239 C 
ATOM      2  O   CYS A   1      11.844  13.874  26.129  0.00  0.00    -0.274 OA
ATOM      3  N   GLY A   2      13.028  12.020  25.731  0.00  0.00    -0.297 N 
ATOM      4  H   GLY A   2      13.966  11.605  25.559  0.00  0.00    +0.150 HD
ENDROOT
BRANCH   1   5
ATOM      5  CA  CYS A   1      14.210  14.162  25.863  0.00  0.00    +0.156 C 
BRANCH   5   6
ATOM      6  N   CYS A   1      13.965  15.343  25.053  0.00  0.00    -0.237 NA
ATOM      7  H   CYS A   1      14.111  16.284  25.471  0.00  0.00    +0.142 HD
ENDBRANCH   5   6
BRANCH   5   8
ATOM      8  CB  CYS A   1      14.653  14.591  27.269  0.00  0.00    +0.095 C 
ATOM      9  SG  CYS A   1      15.088  13.228  28.367  0.00  0.00    -0.080 S 
ENDBRANCH   5   8
ENDBRANCH   1   5
BRANCH   3  10
ATOM     10  CA  GLY A   2      11.861  11.159  25.755  0.00  0.00    +0.163 C 
BRANCH  10  11
ATOM     11  C   GLY A   2      11.113  11.101  24.432  0.00  0.00    +0.229 C 
ATOM     12  O   GLY A   2      10.058  10.484  24.349  0.00  0.00    -0.286 OA
ENDBRANCH  10  11
ENDBRANCH   3  10
TORSDOF 5
REMARK  Name = ../refined-set-2016/4lk7/4lk7_pocket.pdb
REMARK  89 active torsions:
REMARK  status: ('A' for Active; 'I' for Inactive)
REMARK    1  A    between atoms: _1  and  _3
REMARK    2  A    between atoms: _3  and  _4
REMARK    3  A    between atoms: _3  and  _6
REMARK    4  A    between atoms: _6  and  _7
REMARK    5  A    between atoms: _9  and  _11
REMARK    6  A    between atoms: _11  and  _12
REMARK    7  A    between atoms: _11  and  _14
REMARK    8  A    between atoms: _14  and  _15
REMARK    9  A    between atoms: _20  and  _21
REMARK   10  A    between atoms: _23  and  _25
REMARK   11  A    between atoms: _25  and  _26
REMARK   12  A    between atoms: _29  and  _30
REMARK   13  A    between atoms: _35  and  _37
REMARK   14  A    between atoms: _37  and  _38
REMARK   15  A    between atoms: _37  and  _40
REMARK   16  A    between atoms: _40  and  _41
REMARK   17  A    between atoms: _44  and  _46
REMARK   18  A    between atoms: _46  and  _47
REMARK   19  A    between atoms: _46  and  _49
REMARK   20  A    between atoms: _49  and  _50
REMARK   21  A    between atoms: _50  and  _51
REMARK   22  A    between atoms: _56  and  _58
REMARK   23  A    between atoms: _58  and  _59
REMARK   24  A    between atoms: _58  and  _61
REMARK   25  A    between atoms: _61  and  _62
REMARK   26  A    between atoms: _72  and  _74
REMARK   27  A    between atoms: _74  and  _75
REMARK   28  A    between atoms: _74  and  _77
REMARK   29  A    between atoms: _77  and  _78
REMARK   30  A    between atoms: _81  and  _83
REMARK   31  A    between atoms: _83  and  _84
REMARK   32  A    between atoms: _83  and  _86
REMARK   33  A    between atoms: _86  and  _87
REMARK   34  A    between atoms: _87  and  _88
REMARK   35  A    between atoms: _91  and  _93
REMARK   36  A    between atoms: _93  and  _94
REMARK   37  A    between atoms: _93  and  _96
REMARK   38  A    between atoms: _96  and  _97
REMARK   39  A    between atoms: _103  and  _104
REMARK   40  A    between atoms: _109  and  _111
REMARK   41  A    between atoms: _111  and  _112
REMARK   42  A    between atoms: _111  and  _114
REMARK   43  A    between atoms: _114  and  _115
REMARK   44  A    between atoms: _118  and  _120
REMARK   45  A    between atoms: _120  and  _121
REMARK   46  A    between atoms: _120  and  _123
REMARK   47  A    between atoms: _123  and  _124
REMARK   48  A    between atoms: _124  and  _125
REMARK   49  A    between atoms: _130  and  _132
REMARK   50  A    between atoms: _132  and  _133
REMARK   51  A    between atoms: _135  and  _137
REMARK   52  A    between atoms: _137  and  _138
REMARK   53  A    between atoms: _137  and  _140
REMARK   54  A    between atoms: _140  and  _141
REMARK   55  A    between atoms: _144  and  _146
REMARK   56  A    between atoms: _146  and  _147
REMARK   57  A    between atoms: _146  and  _149
REMARK   58  A    between atoms: _151  and  _153
REMARK   59  A    between atoms: _153  and  _154
REMARK   60  A    between atoms: _156  and  _158
REMARK   61  A    between atoms: _158  and  _159
REMARK   62  A    between atoms: _158  and  _161
REMARK   63  A    between atoms: _161  and  _162
REMARK   64  A    between atoms: _167  and  _168
REMARK   65  A    between atoms: _170  and  _172
REMARK   66  A    between atoms: _172  and  _173
REMARK   67  A    between atoms: _172  and  _175
REMARK   68  A    between atoms: _175  and  _176
REMARK   69  A    between atoms: _181  and  _183
REMARK   70  A    between atoms: _183  and  _184
REMARK   71  A    between atoms: _183  and  _186
REMARK   72  A    between atoms: _186  and  _187
REMARK   73  A    between atoms: _190  and  _192
REMARK   74  A    between atoms: _192  and  _193
REMARK   75  A    between atoms: _192  and  _195
REMARK   76  A    between atoms: _199  and  _200
REMARK   77  A    between atoms: _205  and  _207
REMARK   78  A    between atoms: _207  and  _208
REMARK   79  A    between atoms: _210  and  _212
REMARK   80  A    between atoms: _212  and  _213
REMARK   81  A    between atoms: _212  and  _215
REMARK   82  A    between atoms: _215  and  _216
REMARK   83  A    between atoms: _221  and  _224
REMARK   84  A    between atoms: _224  and  _225
REMARK   85  A    between atoms: _230  and  _231
REMARK   86  A    between atoms: _240  and  _243
REMARK   87  A    between atoms: _243  and  _244
REMARK   88  A    between atoms: _251  and  _252
REMARK   89  A    between atoms: _255  and  _257
REMARK                            x       y       z     vdW  Elec       q    Type
REMARK                         _______ _______ _______ _____ _____    ______ ____
ROOT
ATOM      1  C   UNK A   0      23.255   5.845  31.093  0.00  0.00    +0.000 C 
ATOM      2  O   UNK A   0      23.405   5.446  32.250  0.00  0.00    +0.000 OA
ATOM      3  N   UNK A   0      22.172   6.517  30.707  0.00  0.00    +0.000 N 
ATOM      4  H   UNK A   0      22.084   6.844  29.724  0.00  0.00    +0.000 HD
ENDROOT
BRANCH   3   5
ATOM      5  C   UNK A   0      21.104   6.795  31.674  0.00  0.00    +0.000 C 
BRANCH   5   6
ATOM      6  C   UNK A   0      19.785   6.097  31.337  0.00  0.00    +0.000 C 
ATOM      7  O   UNK A   0      18.747   6.451  31.873  0.00  0.00    +0.000 OA
ATOM      8 CA   UNK A   0      16.917   8.015  32.033  0.00  0.00    +0.000 Ca
ATOM      9  O   UNK A   1      15.330   6.324  31.269  0.00  0.00    +0.000 OA
ATOM     10  C   UNK A   1      14.985   5.663  30.294  0.00  0.00    +0.000 C 
ATOM     11  C   UNK A   1      14.013   4.523  30.460  0.00  0.00    +0.000 C 
ATOM     12  C   UNK A   1      13.469   4.433  31.892  0.00  0.00    +0.000 C 
ATOM     13  N   UNK A   1      14.548   4.125  32.818  0.00  0.00    +0.000 N 
ATOM     14  C   UNK A   1      14.466   4.466  34.103  0.00  0.00    +0.000 C 
ATOM     15  C   UNK A   1      15.656   4.099  34.985  0.00  0.00    +0.000 C 
ATOM     16  N   UNK A   1      16.831   3.739  34.209  0.00  0.00    +0.000 N 
ATOM     17  C   UNK A   1      17.158   2.468  34.004  0.00  0.00    +0.000 C 
ATOM     18  O   UNK A   1      16.494   1.527  34.442  0.00  0.00    +0.000 OA
ATOM     19  C   UNK A   1      18.411   2.211  33.193  0.00  0.00    +0.000 C 
ATOM     20  N   UNK A   1      18.783   3.225  32.218  0.00  0.00    +0.000 N 
ATOM     21  H   UNK A   1      19.681   3.738  32.331  0.00  0.00    +0.000 HD
ATOM     22  C   UNK A   1      17.994   3.508  31.183  0.00  0.00    +0.000 C 
ATOM     23  O   UNK A   1      16.838   3.089  31.097  0.00  0.00    +0.000 OA
ATOM     24  C   UNK A   1      18.572   4.409  30.095  0.00  0.00    +0.000 C 
ATOM     25  H   UNK A   1      17.427   4.491  33.807  0.00  0.00    +0.000 HD
ATOM     26  O   UNK A   1      13.490   5.051  34.577  0.00  0.00    +0.000 OA
ATOM     27  H   UNK A   1      15.395   3.632  32.472  0.00  0.00    +0.000 HD
ATOM     28  N   UNK A   1      19.816   5.092  30.471  0.00  0.00    +0.000 NA
ATOM     29  H   UNK A   1      20.721   4.788  30.059  0.00  0.00    +0.000 HD
BRANCH  10  30
ATOM     30  N   UNK A   1      15.443   5.897  29.073  0.00  0.00    +0.000 NA
ATOM     31  H   UNK A   1      16.123   6.667  28.911  0.00  0.00    +0.000 HD
ATOM     32  H   UNK A   1      15.122   5.311  28.276  0.00  0.00    +0.000 HD
ENDBRANCH  10  30
BRANCH  12  33
ATOM     33  C   UNK A   1      12.346   3.411  31.973  0.00  0.00    +0.000 C 
ATOM     34  O   UNK A   1      12.555   2.266  32.369  0.00  0.00    +0.000 OA
ENDBRANCH  12  33
BRANCH  15  35
ATOM     35  C   UNK A   1      15.961   5.252  35.939  0.00  0.00    +0.000 C 
BRANCH  35  36
ATOM     36  C   UNK A   1      16.365   6.506  35.215  0.00  0.00    +0.000 C 
ATOM     37  N   UNK A   1      16.331   7.638  35.915  0.00  0.00    +0.000 N 
ATOM     38  H   UNK A   1      16.028   7.625  36.910  0.00  0.00    +0.000 HD
ATOM     39  H   UNK A   1      16.608   8.535  35.467  0.00  0.00    +0.000 HD
ATOM     40  O   UNK A   1      16.715   6.461  34.037  0.00  0.00    +0.000 OA
ENDBRANCH  35  36
ENDBRANCH  15  35
BRANCH  24  41
ATOM     41  C   UNK A   1      18.767   3.604  28.807  0.00  0.00    +0.000 C 
BRANCH  41  42
ATOM     42  C   UNK A   1      18.788   4.451  27.558  0.00  0.00    +0.000 A 
ATOM     43  C   UNK A   1      19.837   5.322  27.304  0.00  0.00    +0.000 A 
ATOM     44  C   UNK A   1      19.865   6.102  26.149  0.00  0.00    +0.000 A 
ATOM     45  C   UNK A   1      18.836   6.012  25.241  0.00  0.00    +0.000 A 
ATOM     46  C   UNK A   1      17.780   5.149  25.469  0.00  0.00    +0.000 A 
ATOM     47  C   UNK A   1      17.758   4.377  26.628  0.00  0.00    +0.000 A 
BRANCH  45  48
ATOM     48  O   UNK A   1      18.855   6.782  24.090  0.00  0.00    +0.000 OA
ATOM     49  H   UNK A   1      18.056   7.366  24.072  0.00  0.00    +0.000 HD
ENDBRANCH  45  48
ENDBRANCH  41  42
ENDBRANCH  24  41
ENDBRANCH   5   6
BRANCH   5  50
ATOM     50  C   UNK A   0      20.828   8.310  31.841  0.00  0.00    +0.000 C 
ATOM     51  C   UNK A   0      22.118   9.098  31.960  0.00  0.00    +0.000 C 
BRANCH  50  52
ATOM     52  O   UNK A   0      20.076   8.798  30.723  0.00  0.00    +0.000 OA
ATOM     53  H   UNK A   0      20.591   8.650  29.891  0.00  0.00    +0.000 HD
ENDBRANCH  50  52
ENDBRANCH   5  50
ENDBRANCH   3   5
BRANCH   1  54
ATOM     54  C   UNK A   0      24.333   5.579  30.056  0.00  0.00    +0.000 C 
BRANCH  54  57
ATOM     55  C   UNK A   0      24.150   7.304  28.366  0.00  0.00    +0.000 C 
ATOM     56  O   UNK A   0      24.535   8.180  29.147  0.00  0.00    +0.000 OA
ATOM     57  N   UNK A   0      24.022   6.028  28.709  0.00  0.00    +0.000 N 
ATOM     58  H   UNK A   0      23.694   5.339  28.003  0.00  0.00    +0.000 HD
BRANCH  55  62
ATOM     59  C   UNK A   0      22.022   9.173  27.693  0.00  0.00    +0.000 C 
ATOM     60  O   UNK A   0      21.588   8.316  28.459  0.00  0.00    +0.000 OA
ATOM     61  N   UNK A   0      23.078   8.960  26.896  0.00  0.00    +0.000 N 
ATOM     62  C   UNK A   0      23.753   7.658  26.939  0.00  0.00    +0.000 C 
ATOM     63  C   UNK A   0      24.996   7.878  26.065  0.00  0.00    +0.000 C 
ATOM     64  C   UNK A   0      24.582   8.939  25.112  0.00  0.00    +0.000 C 
ATOM     65  C   UNK A   0      23.683   9.863  25.902  0.00  0.00    +0.000 C 
BRANCH  59  66
ATOM     66  C   UNK A   0      21.352  10.538  27.614  0.00  0.00    +0.000 C 
BRANCH  66  68
ATOM     67  C   UNK A   0      19.327  10.137  26.333  0.00  0.00    +0.000 C 
ATOM     68  N   UNK A   0      19.904  10.368  27.506  0.00  0.00    +0.000 N 
ATOM     69  H   UNK A   0      19.316  10.429  28.362  0.00  0.00    +0.000 HD
ATOM     70  O   UNK A   0      19.967  10.069  25.274  0.00  0.00    +0.000 OA
BRANCH  67  71
ATOM     71  C   UNK A   0      17.816   9.944  26.350  0.00  0.00    +0.000 C 
BRANCH  71  74
ATOM     72  C   UNK A   0      16.183  10.103  24.541  0.00  0.00    +0.000 C 
ATOM     73  O   UNK A   0      15.374  10.659  25.274  0.00  0.00    +0.000 OA
ATOM     74  N   UNK A   0      17.374   9.691  24.972  0.00  0.00    +0.000 N 
ATOM     75  H   UNK A   0      18.003   9.180  24.320  0.00  0.00    +0.000 HD
BRANCH  72  76
ATOM     76  C   UNK A   0      15.836   9.834  23.080  0.00  0.00    +0.000 C 
BRANCH  76  79
ATOM     77  C   UNK A   0      15.203   7.490  22.958  0.00  0.00    +0.000 C 
ATOM     78  O   UNK A   0      16.374   7.145  23.064  0.00  0.00    +0.000 OA
ATOM     79  N   UNK A   0      14.842   8.768  22.956  0.00  0.00    +0.000 N 
ATOM     80  H   UNK A   0      13.836   9.015  22.865  0.00  0.00    +0.000 HD
BRANCH  77  81
ATOM     81  C   UNK A   0      14.095   6.437  22.806  0.00  0.00    +0.000 C 
BRANCH  81  82
ATOM     82  N   UNK A   0      14.574   5.412  21.892  0.00  0.00    +0.000 NA
ATOM     83  H   UNK A   0      14.830   4.478  22.271  0.00  0.00    +0.000 HD
ENDBRANCH  81  82
BRANCH  81  84
ATOM     84  C   UNK A   0      13.796   5.776  24.150  0.00  0.00    +0.000 C 
BRANCH  84  85
ATOM     85  C   UNK A   0      13.009   6.607  25.135  0.00  0.00    +0.000 A 
ATOM     86  C   UNK A   0      13.582   7.039  26.331  0.00  0.00    +0.000 A 
ATOM     87  C   UNK A   0      12.848   7.788  27.244  0.00  0.00    +0.000 A 
ATOM     88  C   UNK A   0      11.527   8.097  26.966  0.00  0.00    +0.000 A 
ATOM     89  C   UNK A   0      10.944   7.661  25.795  0.00  0.00    +0.000 A 
ATOM     90  C   UNK A   0      11.679   6.918  24.893  0.00  0.00    +0.000 A 
BRANCH  88  91
ATOM     91  O   UNK A   0      10.771   8.833  27.867  0.00  0.00    +0.000 OA
ATOM     92  H   UNK A   0       9.858   8.957  27.506  0.00  0.00    +0.000 HD
ENDBRANCH  88  91
ENDBRANCH  84  85
ENDBRANCH  81  84
ENDBRANCH  77  81
ENDBRANCH  76  79
BRANCH  76  93
ATOM     93  C   UNK A   0      15.325  11.130  22.422  0.00  0.00    +0.000 C 
BRANCH  93  94
ATOM     94  C   UNK A   0      16.443  12.135  22.161  0.00  0.00    +0.000 C 
ATOM     95  O   UNK A   0      17.610  11.761  22.075  0.00  0.00    +0.000 OA
ATOM     96  N   UNK A   0      16.088  13.411  22.024  0.00  0.00    +0.000 N 
ATOM     97  H   UNK A   0      15.088  13.684  22.104  0.00  0.00    +0.000 HD
ATOM     98  H   UNK A   0      16.811  14.135  21.837  0.00  0.00    +0.000 HD
ENDBRANCH  93  94
ENDBRANCH  76  93
ENDBRANCH  72  76
ENDBRANCH  71  74
BRANCH  71  99
ATOM     99  C   UNK A   0      17.444   8.772  27.274  0.00  0.00    +0.000 C 
BRANCH  99 100
ATOM    100  C   UNK A   0      17.377   9.164  28.765  0.00  0.00    +0.000 C 
ATOM    101  O   UNK A   0      16.997   8.291  29.575  0.00  0.00    +0.000 OA
ATOM    102  O   UNK A   0      17.676  10.324  29.129  0.00  0.00    +0.000 OA
ENDBRANCH  99 100
ENDBRANCH  71  99
ENDBRANCH  67  71
ENDBRANCH  66  68
BRANCH  66 103
ATOM    103  C   UNK A   0      21.713  11.355  28.849  0.00  0.00    +0.000 C 
ATOM    104  C   UNK A   0      23.224  11.441  29.008  0.00  0.00    +0.000 C 
ATOM    105  C   UNK A   0      21.082  12.740  28.757  0.00  0.00    +0.000 C 
ENDBRANCH  66 103
ENDBRANCH  59  66
ENDBRANCH  55  62
ENDBRANCH  54  57
ENDBRANCH   1  54
TORSDOF 30
REMARK  Name = ../refined-set-2016/4lk7/4lk7_pocket.pdb
REMARK  89 active torsions:
REMARK  status: ('A' for Active; 'I' for Inactive)
REMARK    1  A    between atoms: _1  and  _3
REMARK    2  A    between atoms: _3  and  _4
REMARK    3  A    between atoms: _3  and  _6
REMARK    4  A    between atoms: _6  and  _7
REMARK    5  A    between atoms: _9  and  _11
REMARK    6  A    between atoms: _11  and  _12
REMARK    7  A    between atoms: _11  and  _14
REMARK    8  A    between atoms: _14  and  _15
REMARK    9  A    between atoms: _20  and  _21
REMARK   10  A    between atoms: _23  and  _25
REMARK   11  A    between atoms: _25  and  _26
REMARK   12  A    between atoms: _29  and  _30
REMARK   13  A    between atoms: _35  and  _37
REMARK   14  A    between atoms: _37  and  _38
REMARK   15  A    between atoms: _37  and  _40
REMARK   16  A    between atoms: _40  and  _41
REMARK   17  A    between atoms: _44  and  _46
REMARK   18  A    between atoms: _46  and  _47
REMARK   19  A    between atoms: _46  and  _49
REMARK   20  A    between atoms: _49  and  _50
REMARK   21  A    between atoms: _50  and  _51
REMARK   22  A    between atoms: _56  and  _58
REMARK   23  A    between atoms: _58  and  _59
REMARK   24  A    between atoms: _58  and  _61
REMARK   25  A    between atoms: _61  and  _62
REMARK   26  A    between atoms: _72  and  _74
REMARK   27  A    between atoms: _74  and  _75
REMARK   28  A    between atoms: _74  and  _77
REMARK   29  A    between atoms: _77  and  _78
REMARK   30  A    between atoms: _81  and  _83
REMARK   31  A    between atoms: _83  and  _84
REMARK   32  A    between atoms: _83  and  _86
REMARK   33  A    between atoms: _86  and  _87
REMARK   34  A    between atoms: _87  and  _88
REMARK   35  A    between atoms: _91  and  _93
REMARK   36  A    between atoms: _93  and  _94
REMARK   37  A    between atoms: _93  and  _96
REMARK   38  A    between atoms: _96  and  _97
REMARK   39  A    between atoms: _103  and  _104
REMARK   40  A    between atoms: _109  and  _111
REMARK   41  A    between atoms: _111  and  _112
REMARK   42  A    between atoms: _111  and  _114
REMARK   43  A    between atoms: _114  and  _115
REMARK   44  A    between atoms: _118  and  _120
REMARK   45  A    between atoms: _120  and  _121
REMARK   46  A    between atoms: _120  and  _123
REMARK   47  A    between atoms: _123  and  _124
REMARK   48  A    between atoms: _124  and  _125
REMARK   49  A    between atoms: _130  and  _132
REMARK   50  A    between atoms: _132  and  _133
REMARK   51  A    between atoms: _135  and  _137
REMARK   52  A    between atoms: _137  and  _138
REMARK   53  A    between atoms: _137  and  _140
REMARK   54  A    between atoms: _140  and  _141
REMARK   55  A    between atoms: _144  and  _146
REMARK   56  A    between atoms: _146  and  _147
REMARK   57  A    between atoms: _146  and  _149
REMARK   58  A    between atoms: _151  and  _153
REMARK   59  A    between atoms: _153  and  _154
REMARK   60  A    between atoms: _156  and  _158
REMARK   61  A    between atoms: _158  and  _159
REMARK   62  A    between atoms: _158  and  _161
REMARK   63  A    between atoms: _161  and  _162
REMARK   64  A    between atoms: _167  and  _168
REMARK   65  A    between atoms: _170  and  _172
REMARK   66  A    between atoms: _172  and  _173
REMARK   67  A    between atoms: _172  and  _175
REMARK   68  A    between atoms: _175  and  _176
REMARK   69  A    between atoms: _181  and  _183
REMARK   70  A    between atoms: _183  and  _184
REMARK   71  A    between atoms: _183  and  _186
REMARK   72  A    between atoms: _186  and  _187
REMARK   73  A    between atoms: _190  and  _192
REMARK   74  A    between atoms: _192  and  _193
REMARK   75  A    between atoms: _192  and  _195
REMARK   76  A    between atoms: _199  and  _200
REMARK   77  A    between atoms: _205  and  _207
REMARK   78  A    between atoms: _207  and  _208
REMARK   79  A    between atoms: _210  and  _212
REMARK   80  A    between atoms: _212  and  _213
REMARK   81  A    between atoms: _212  and  _215
REMARK   82  A    between atoms: _215  and  _216
REMARK   83  A    between atoms: _221  and  _224
REMARK   84  A    between atoms: _224  and  _225
REMARK   85  A    between atoms: _230  and  _231
REMARK   86  A    between atoms: _240  and  _243
REMARK   87  A    between atoms: _243  and  _244
REMARK   88  A    between atoms: _251  and  _252
REMARK   89  A    between atoms: _255  and  _257
REMARK                            x       y       z     vdW  Elec       q    Type
REMARK                         _______ _______ _______ _____ _____    ______ ____
ROOT
ATOM      1  O   HOH     1      18.102  15.717  28.478  0.00  0.00    +0.000 OA
ENDROOT
TORSDOF 0
REMARK  Name = ../refined-set-2016/4lk7/4lk7_pocket.pdb
REMARK  89 active torsions:
REMARK  status: ('A' for Active; 'I' for Inactive)
REMARK    1  A    between atoms: _1  and  _3
REMARK    2  A    between atoms: _3  and  _4
REMARK    3  A    between atoms: _3  and  _6
REMARK    4  A    between atoms: _6  and  _7
REMARK    5  A    between atoms: _9  and  _11
REMARK    6  A    between atoms: _11  and  _12
REMARK    7  A    between atoms: _11  and  _14
REMARK    8  A    between atoms: _14  and  _15
REMARK    9  A    between atoms: _20  and  _21
REMARK   10  A    between atoms: _23  and  _25
REMARK   11  A    between atoms: _25  and  _26
REMARK   12  A    between atoms: _29  and  _30
REMARK   13  A    between atoms: _35  and  _37
REMARK   14  A    between atoms: _37  and  _38
REMARK   15  A    between atoms: _37  and  _40
REMARK   16  A    between atoms: _40  and  _41
REMARK   17  A    between atoms: _44  and  _46
REMARK   18  A    between atoms: _46  and  _47
REMARK   19  A    between atoms: _46  and  _49
REMARK   20  A    between atoms: _49  and  _50
REMARK   21  A    between atoms: _50  and  _51
REMARK   22  A    between atoms: _56  and  _58
REMARK   23  A    between atoms: _58  and  _59
REMARK   24  A    between atoms: _58  and  _61
REMARK   25  A    between atoms: _61  and  _62
REMARK   26  A    between atoms: _72  and  _74
REMARK   27  A    between atoms: _74  and  _75
REMARK   28  A    between atoms: _74  and  _77
REMARK   29  A    between atoms: _77  and  _78
REMARK   30  A    between atoms: _81  and  _83
REMARK   31  A    between atoms: _83  and  _84
REMARK   32  A    between atoms: _83  and  _86
REMARK   33  A    between atoms: _86  and  _87
REMARK   34  A    between atoms: _87  and  _88
REMARK   35  A    between atoms: _91  and  _93
REMARK   36  A    between atoms: _93  and  _94
REMARK   37  A    between atoms: _93  and  _96
REMARK   38  A    between atoms: _96  and  _97
REMARK   39  A    between atoms: _103  and  _104
REMARK   40  A    between atoms: _109  and  _111
REMARK   41  A    between atoms: _111  and  _112
REMARK   42  A    between atoms: _111  and  _114
REMARK   43  A    between atoms: _114  and  _115
REMARK   44  A    between atoms: _118  and  _120
REMARK   45  A    between atoms: _120  and  _121
REMARK   46  A    between atoms: _120  and  _123
REMARK   47  A    between atoms: _123  and  _124
REMARK   48  A    between atoms: _124  and  _125
REMARK   49  A    between atoms: _130  and  _132
REMARK   50  A    between atoms: _132  and  _133
REMARK   51  A    between atoms: _135  and  _137
REMARK   52  A    between atoms: _137  and  _138
REMARK   53  A    between atoms: _137  and  _140
REMARK   54  A    between atoms: _140  and  _141
REMARK   55  A    between atoms: _144  and  _146
REMARK   56  A    between atoms: _146  and  _147
REMARK   57  A    between atoms: _146  and  _149
REMARK   58  A    between atoms: _151  and  _153
REMARK   59  A    between atoms: _153  and  _154
REMARK   60  A    between atoms: _156  and  _158
REMARK   61  A    between atoms: _158  and  _159
REMARK   62  A    between atoms: _158  and  _161
REMARK   63  A    between atoms: _161  and  _162
REMARK   64  A    between atoms: _167  and  _168
REMARK   65  A    between atoms: _170  and  _172
REMARK   66  A    between atoms: _172  and  _173
REMARK   67  A    between atoms: _172  and  _175
REMARK   68  A    between atoms: _175  and  _176
REMARK   69  A    between atoms: _181  and  _183
REMARK   70  A    between atoms: _183  and  _184
REMARK   71  A    between atoms: _183  and  _186
REMARK   72  A    between atoms: _186  and  _187
REMARK   73  A    between atoms: _190  and  _192
REMARK   74  A    between atoms: _192  and  _193
REMARK   75  A    between atoms: _192  and  _195
REMARK   76  A    between atoms: _199  and  _200
REMARK   77  A    between atoms: _205  and  _207
REMARK   78  A    between atoms: _207  and  _208
REMARK   79  A    between atoms: _210  and  _212
REMARK   80  A    between atoms: _212  and  _213
REMARK   81  A    between atoms: _212  and  _215
REMARK   82  A    between atoms: _215  and  _216
REMARK   83  A    between atoms: _221  and  _224
REMARK   84  A    between atoms: _224  and  _225
REMARK   85  A    between atoms: _230  and  _231
REMARK   86  A    between atoms: _240  and  _243
REMARK   87  A    between atoms: _243  and  _244
REMARK   88  A    between atoms: _251  and  _252
REMARK   89  A    between atoms: _255  and  _257
REMARK                            x       y       z     vdW  Elec       q    Type
REMARK                         _______ _______ _______ _____ _____    ______ ____
ROOT
ATOM      1  O   HOH     1      21.509   3.161  32.950  0.00  0.00    +0.000 OA
ENDROOT
TORSDOF 0
REMARK  Name = ../refined-set-2016/4lk7/4lk7_pocket.pdb
REMARK  89 active torsions:
REMARK  status: ('A' for Active; 'I' for Inactive)
REMARK    1  A    between atoms: _1  and  _3
REMARK    2  A    between atoms: _3  and  _4
REMARK    3  A    between atoms: _3  and  _6
REMARK    4  A    between atoms: _6  and  _7
REMARK    5  A    between atoms: _9  and  _11
REMARK    6  A    between atoms: _11  and  _12
REMARK    7  A    between atoms: _11  and  _14
REMARK    8  A    between atoms: _14  and  _15
REMARK    9  A    between atoms: _20  and  _21
REMARK   10  A    between atoms: _23  and  _25
REMARK   11  A    between atoms: _25  and  _26
REMARK   12  A    between atoms: _29  and  _30
REMARK   13  A    between atoms: _35  and  _37
REMARK   14  A    between atoms: _37  and  _38
REMARK   15  A    between atoms: _37  and  _40
REMARK   16  A    between atoms: _40  and  _41
REMARK   17  A    between atoms: _44  and  _46
REMARK   18  A    between atoms: _46  and  _47
REMARK   19  A    between atoms: _46  and  _49
REMARK   20  A    between atoms: _49  and  _50
REMARK   21  A    between atoms: _50  and  _51
REMARK   22  A    between atoms: _56  and  _58
REMARK   23  A    between atoms: _58  and  _59
REMARK   24  A    between atoms: _58  and  _61
REMARK   25  A    between atoms: _61  and  _62
REMARK   26  A    between atoms: _72  and  _74
REMARK   27  A    between atoms: _74  and  _75
REMARK   28  A    between atoms: _74  and  _77
REMARK   29  A    between atoms: _77  and  _78
REMARK   30  A    between atoms: _81  and  _83
REMARK   31  A    between atoms: _83  and  _84
REMARK   32  A    between atoms: _83  and  _86
REMARK   33  A    between atoms: _86  and  _87
REMARK   34  A    between atoms: _87  and  _88
REMARK   35  A    between atoms: _91  and  _93
REMARK   36  A    between atoms: _93  and  _94
REMARK   37  A    between atoms: _93  and  _96
REMARK   38  A    between atoms: _96  and  _97
REMARK   39  A    between atoms: _103  and  _104
REMARK   40  A    between atoms: _109  and  _111
REMARK   41  A    between atoms: _111  and  _112
REMARK   42  A    between atoms: _111  and  _114
REMARK   43  A    between atoms: _114  and  _115
REMARK   44  A    between atoms: _118  and  _120
REMARK   45  A    between atoms: _120  and  _121
REMARK   46  A    between atoms: _120  and  _123
REMARK   47  A    between atoms: _123  and  _124
REMARK   48  A    between atoms: _124  and  _125
REMARK   49  A    between atoms: _130  and  _132
REMARK   50  A    between atoms: _132  and  _133
REMARK   51  A    between atoms: _135  and  _137
REMARK   52  A    between atoms: _137  and  _138
REMARK   53  A    between atoms: _137  and  _140
REMARK   54  A    between atoms: _140  and  _141
REMARK   55  A    between atoms: _144  and  _146
REMARK   56  A    between atoms: _146  and  _147
REMARK   57  A    between atoms: _146  and  _149
REMARK   58  A    between atoms: _151  and  _153
REMARK   59  A    between atoms: _153  and  _154
REMARK   60  A    between atoms: _156  and  _158
REMARK   61  A    between atoms: _158  and  _159
REMARK   62  A    between atoms: _158  and  _161
REMARK   63  A    between atoms: _161  and  _162
REMARK   64  A    between atoms: _167  and  _168
REMARK   65  A    between atoms: _170  and  _172
REMARK   66  A    between atoms: _172  and  _173
REMARK   67  A    between atoms: _172  and  _175
REMARK   68  A    between atoms: _175  and  _176
REMARK   69  A    between atoms: _181  and  _183
REMARK   70  A    between atoms: _183  and  _184
REMARK   71  A    between atoms: _183  and  _186
REMARK   72  A    between atoms: _186  and  _187
REMARK   73  A    between atoms: _190  and  _192
REMARK   74  A    between atoms: _192  and  _193
REMARK   75  A    between atoms: _192  and  _195
REMARK   76  A    between atoms: _199  and  _200
REMARK   77  A    between atoms: _205  and  _207
REMARK   78  A    between atoms: _207  and  _208
REMARK   79  A    between atoms: _210  and  _212
REMARK   80  A    between atoms: _212  and  _213
REMARK   81  A    between atoms: _212  and  _215
REMARK   82  A    between atoms: _215  and  _216
REMARK   83  A    between atoms: _221  and  _224
REMARK   84  A    between atoms: _224  and  _225
REMARK   85  A    between atoms: _230  and  _231
REMARK   86  A    between atoms: _240  and  _243
REMARK   87  A    between atoms: _243  and  _244
REMARK   88  A    between atoms: _251  and  _252
REMARK   89  A    between atoms: _255  and  _257
REMARK                            x       y       z     vdW  Elec       q    Type
REMARK                         _______ _______ _______ _____ _____    ______ ____
ROOT
ATOM      1  O   HOH     1      13.370   6.311  37.734  0.00  0.00    +0.000 OA
ENDROOT
TORSDOF 0
REMARK  Name = ../refined-set-2016/4lk7/4lk7_pocket.pdb
REMARK  89 active torsions:
REMARK  status: ('A' for Active; 'I' for Inactive)
REMARK    1  A    between atoms: _1  and  _3
REMARK    2  A    between atoms: _3  and  _4
REMARK    3  A    between atoms: _3  and  _6
REMARK    4  A    between atoms: _6  and  _7
REMARK    5  A    between atoms: _9  and  _11
REMARK    6  A    between atoms: _11  and  _12
REMARK    7  A    between atoms: _11  and  _14
REMARK    8  A    between atoms: _14  and  _15
REMARK    9  A    between atoms: _20  and  _21
REMARK   10  A    between atoms: _23  and  _25
REMARK   11  A    between atoms: _25  and  _26
REMARK   12  A    between atoms: _29  and  _30
REMARK   13  A    between atoms: _35  and  _37
REMARK   14  A    between atoms: _37  and  _38
REMARK   15  A    between atoms: _37  and  _40
REMARK   16  A    between atoms: _40  and  _41
REMARK   17  A    between atoms: _44  and  _46
REMARK   18  A    between atoms: _46  and  _47
REMARK   19  A    between atoms: _46  and  _49
REMARK   20  A    between atoms: _49  and  _50
REMARK   21  A    between atoms: _50  and  _51
REMARK   22  A    between atoms: _56  and  _58
REMARK   23  A    between atoms: _58  and  _59
REMARK   24  A    between atoms: _58  and  _61
REMARK   25  A    between atoms: _61  and  _62
REMARK   26  A    between atoms: _72  and  _74
REMARK   27  A    between atoms: _74  and  _75
REMARK   28  A    between atoms: _74  and  _77
REMARK   29  A    between atoms: _77  and  _78
REMARK   30  A    between atoms: _81  and  _83
REMARK   31  A    between atoms: _83  and  _84
REMARK   32  A    between atoms: _83  and  _86
REMARK   33  A    between atoms: _86  and  _87
REMARK   34  A    between atoms: _87  and  _88
REMARK   35  A    between atoms: _91  and  _93
REMARK   36  A    between atoms: _93  and  _94
REMARK   37  A    between atoms: _93  and  _96
REMARK   38  A    between atoms: _96  and  _97
REMARK   39  A    between atoms: _103  and  _104
REMARK   40  A    between atoms: _109  and  _111
REMARK   41  A    between atoms: _111  and  _112
REMARK   42  A    between atoms: _111  and  _114
REMARK   43  A    between atoms: _114  and  _115
REMARK   44  A    between atoms: _118  and  _120
REMARK   45  A    between atoms: _120  and  _121
REMARK   46  A    between atoms: _120  and  _123
REMARK   47  A    between atoms: _123  and  _124
REMARK   48  A    between atoms: _124  and  _125
REMARK   49  A    between atoms: _130  and  _132
REMARK   50  A    between atoms: _132  and  _133
REMARK   51  A    between atoms: _135  and  _137
REMARK   52  A    between atoms: _137  and  _138
REMARK   53  A    between atoms: _137  and  _140
REMARK   54  A    between atoms: _140  and  _141
REMARK   55  A    between atoms: _144  and  _146
REMARK   56  A    between atoms: _146  and  _147
REMARK   57  A    between atoms: _146  and  _149
REMARK   58  A    between atoms: _151  and  _153
REMARK   59  A    between atoms: _153  and  _154
REMARK   60  A    between atoms: _156  and  _158
REMARK   61  A    between atoms: _158  and  _159
REMARK   62  A    between atoms: _158  and  _161
REMARK   63  A    between atoms: _161  and  _162
REMARK   64  A    between atoms: _167  and  _168
REMARK   65  A    between atoms: _170  and  _172
REMARK   66  A    between atoms: _172  and  _173
REMARK   67  A    between atoms: _172  and  _175
REMARK   68  A    between atoms: _175  and  _176
REMARK   69  A    between atoms: _181  and  _183
REMARK   70  A    between atoms: _183  and  _184
REMARK   71  A    between atoms: _183  and  _186
REMARK   72  A    between atoms: _186  and  _187
REMARK   73  A    between atoms: _190  and  _192
REMARK   74  A    between atoms: _192  and  _193
REMARK   75  A    between atoms: _192  and  _195
REMARK   76  A    between atoms: _199  and  _200
REMARK   77  A    between atoms: _205  and  _207
REMARK   78  A    between atoms: _207  and  _208
REMARK   79  A    between atoms: _210  and  _212
REMARK   80  A    between atoms: _212  and  _213
REMARK   81  A    between atoms: _212  and  _215
REMARK   82  A    between atoms: _215  and  _216
REMARK   83  A    between atoms: _221  and  _224
REMARK   84  A    between atoms: _224  and  _225
REMARK   85  A    between atoms: _230  and  _231
REMARK   86  A    between atoms: _240  and  _243
REMARK   87  A    between atoms: _243  and  _244
REMARK   88  A    between atoms: _251  and  _252
REMARK   89  A    between atoms: _255  and  _257
REMARK                            x       y       z     vdW  Elec       q    Type
REMARK                         _______ _______ _______ _____ _____    ______ ____
ROOT
ATOM      1  O   HOH     1      14.152  17.873  25.938  0.00  0.00    +0.000 OA
ENDROOT
TORSDOF 0
REMARK  Name = ../refined-set-2016/4lk7/4lk7_pocket.pdb
REMARK  89 active torsions:
REMARK  status: ('A' for Active; 'I' for Inactive)
REMARK    1  A    between atoms: _1  and  _3
REMARK    2  A    between atoms: _3  and  _4
REMARK    3  A    between atoms: _3  and  _6
REMARK    4  A    between atoms: _6  and  _7
REMARK    5  A    between atoms: _9  and  _11
REMARK    6  A    between atoms: _11  and  _12
REMARK    7  A    between atoms: _11  and  _14
REMARK    8  A    between atoms: _14  and  _15
REMARK    9  A    between atoms: _20  and  _21
REMARK   10  A    between atoms: _23  and  _25
REMARK   11  A    between atoms: _25  and  _26
REMARK   12  A    between atoms: _29  and  _30
REMARK   13  A    between atoms: _35  and  _37
REMARK   14  A    between atoms: _37  and  _38
REMARK   15  A    between atoms: _37  and  _40
REMARK   16  A    between atoms: _40  and  _41
REMARK   17  A    between atoms: _44  and  _46
REMARK   18  A    between atoms: _46  and  _47
REMARK   19  A    between atoms: _46  and  _49
REMARK   20  A    between atoms: _49  and  _50
REMARK   21  A    between atoms: _50  and  _51
REMARK   22  A    between atoms: _56  and  _58
REMARK   23  A    between atoms: _58  and  _59
REMARK   24  A    between atoms: _58  and  _61
REMARK   25  A    between atoms: _61  and  _62
REMARK   26  A    between atoms: _72  and  _74
REMARK   27  A    between atoms: _74  and  _75
REMARK   28  A    between atoms: _74  and  _77
REMARK   29  A    between atoms: _77  and  _78
REMARK   30  A    between atoms: _81  and  _83
REMARK   31  A    between atoms: _83  and  _84
REMARK   32  A    between atoms: _83  and  _86
REMARK   33  A    between atoms: _86  and  _87
REMARK   34  A    between atoms: _87  and  _88
REMARK   35  A    between atoms: _91  and  _93
REMARK   36  A    between atoms: _93  and  _94
REMARK   37  A    between atoms: _93  and  _96
REMARK   38  A    between atoms: _96  and  _97
REMARK   39  A    between atoms: _103  and  _104
REMARK   40  A    between atoms: _109  and  _111
REMARK   41  A    between atoms: _111  and  _112
REMARK   42  A    between atoms: _111  and  _114
REMARK   43  A    between atoms: _114  and  _115
REMARK   44  A    between atoms: _118  and  _120
REMARK   45  A    between atoms: _120  and  _121
REMARK   46  A    between atoms: _120  and  _123
REMARK   47  A    between atoms: _123  and  _124
REMARK   48  A    between atoms: _124  and  _125
REMARK   49  A    between atoms: _130  and  _132
REMARK   50  A    between atoms: _132  and  _133
REMARK   51  A    between atoms: _135  and  _137
REMARK   52  A    between atoms: _137  and  _138
REMARK   53  A    between atoms: _137  and  _140
REMARK   54  A    between atoms: _140  and  _141
REMARK   55  A    between atoms: _144  and  _146
REMARK   56  A    between atoms: _146  and  _147
REMARK   57  A    between atoms: _146  and  _149
REMARK   58  A    between atoms: _151  and  _153
REMARK   59  A    between atoms: _153  and  _154
REMARK   60  A    between atoms: _156  and  _158
REMARK   61  A    between atoms: _158  and  _159
REMARK   62  A    between atoms: _158  and  _161
REMARK   63  A    between atoms: _161  and  _162
REMARK   64  A    between atoms: _167  and  _168
REMARK   65  A    between atoms: _170  and  _172
REMARK   66  A    between atoms: _172  and  _173
REMARK   67  A    between atoms: _172  and  _175
REMARK   68  A    between atoms: _175  and  _176
REMARK   69  A    between atoms: _181  and  _183
REMARK   70  A    between atoms: _183  and  _184
REMARK   71  A    between atoms: _183  and  _186
REMARK   72  A    between atoms: _186  and  _187
REMARK   73  A    between atoms: _190  and  _192
REMARK   74  A    between atoms: _192  and  _193
REMARK   75  A    between atoms: _192  and  _195
REMARK   76  A    between atoms: _199  and  _200
REMARK   77  A    between atoms: _205  and  _207
REMARK   78  A    between atoms: _207  and  _208
REMARK   79  A    between atoms: _210  and  _212
REMARK   80  A    between atoms: _212  and  _213
REMARK   81  A    between atoms: _212  and  _215
REMARK   82  A    between atoms: _215  and  _216
REMARK   83  A    between atoms: _221  and  _224
REMARK   84  A    between atoms: _224  and  _225
REMARK   85  A    between atoms: _230  and  _231
REMARK   86  A    between atoms: _240  and  _243
REMARK   87  A    between atoms: _243  and  _244
REMARK   88  A    between atoms: _251  and  _252
REMARK   89  A    between atoms: _255  and  _257
REMARK                            x       y       z     vdW  Elec       q    Type
REMARK                         _______ _______ _______ _____ _____    ______ ____
ROOT
ATOM      1  O   HOH     1      13.101  18.822  39.035  0.00  0.00    +0.000 OA
ENDROOT
TORSDOF 0
REMARK  Name = ../refined-set-2016/4lk7/4lk7_pocket.pdb
REMARK  89 active torsions:
REMARK  status: ('A' for Active; 'I' for Inactive)
REMARK    1  A    between atoms: _1  and  _3
REMARK    2  A    between atoms: _3  and  _4
REMARK    3  A    between atoms: _3  and  _6
REMARK    4  A    between atoms: _6  and  _7
REMARK    5  A    between atoms: _9  and  _11
REMARK    6  A    between atoms: _11  and  _12
REMARK    7  A    between atoms: _11  and  _14
REMARK    8  A    between atoms: _14  and  _15
REMARK    9  A    between atoms: _20  and  _21
REMARK   10  A    between atoms: _23  and  _25
REMARK   11  A    between atoms: _25  and  _26
REMARK   12  A    between atoms: _29  and  _30
REMARK   13  A    between atoms: _35  and  _37
REMARK   14  A    between atoms: _37  and  _38
REMARK   15  A    between atoms: _37  and  _40
REMARK   16  A    between atoms: _40  and  _41
REMARK   17  A    between atoms: _44  and  _46
REMARK   18  A    between atoms: _46  and  _47
REMARK   19  A    between atoms: _46  and  _49
REMARK   20  A    between atoms: _49  and  _50
REMARK   21  A    between atoms: _50  and  _51
REMARK   22  A    between atoms: _56  and  _58
REMARK   23  A    between atoms: _58  and  _59
REMARK   24  A    between atoms: _58  and  _61
REMARK   25  A    between atoms: _61  and  _62
REMARK   26  A    between atoms: _72  and  _74
REMARK   27  A    between atoms: _74  and  _75
REMARK   28  A    between atoms: _74  and  _77
REMARK   29  A    between atoms: _77  and  _78
REMARK   30  A    between atoms: _81  and  _83
REMARK   31  A    between atoms: _83  and  _84
REMARK   32  A    between atoms: _83  and  _86
REMARK   33  A    between atoms: _86  and  _87
REMARK   34  A    between atoms: _87  and  _88
REMARK   35  A    between atoms: _91  and  _93
REMARK   36  A    between atoms: _93  and  _94
REMARK   37  A    between atoms: _93  and  _96
REMARK   38  A    between atoms: _96  and  _97
REMARK   39  A    between atoms: _103  and  _104
REMARK   40  A    between atoms: _109  and  _111
REMARK   41  A    between atoms: _111  and  _112
REMARK   42  A    between atoms: _111  and  _114
REMARK   43  A    between atoms: _114  and  _115
REMARK   44  A    between atoms: _118  and  _120
REMARK   45  A    between atoms: _120  and  _121
REMARK   46  A    between atoms: _120  and  _123
REMARK   47  A    between atoms: _123  and  _124
REMARK   48  A    between atoms: _124  and  _125
REMARK   49  A    between atoms: _130  and  _132
REMARK   50  A    between atoms: _132  and  _133
REMARK   51  A    between atoms: _135  and  _137
REMARK   52  A    between atoms: _137  and  _138
REMARK   53  A    between atoms: _137  and  _140
REMARK   54  A    between atoms: _140  and  _141
REMARK   55  A    between atoms: _144  and  _146
REMARK   56  A    between atoms: _146  and  _147
REMARK   57  A    between atoms: _146  and  _149
REMARK   58  A    between atoms: _151  and  _153
REMARK   59  A    between atoms: _153  and  _154
REMARK   60  A    between atoms: _156  and  _158
REMARK   61  A    between atoms: _158  and  _159
REMARK   62  A    between atoms: _158  and  _161
REMARK   63  A    between atoms: _161  and  _162
REMARK   64  A    between atoms: _167  and  _168
REMARK   65  A    between atoms: _170  and  _172
REMARK   66  A    between atoms: _172  and  _173
REMARK   67  A    between atoms: _172  and  _175
REMARK   68  A    between atoms: _175  and  _176
REMARK   69  A    between atoms: _181  and  _183
REMARK   70  A    between atoms: _183  and  _184
REMARK   71  A    between atoms: _183  and  _186
REMARK   72  A    between atoms: _186  and  _187
REMARK   73  A    between atoms: _190  and  _192
REMARK   74  A    between atoms: _192  and  _193
REMARK   75  A    between atoms: _192  and  _195
REMARK   76  A    between atoms: _199  and  _200
REMARK   77  A    between atoms: _205  and  _207
REMARK   78  A    between atoms: _207  and  _208
REMARK   79  A    between atoms: _210  and  _212
REMARK   80  A    between atoms: _212  and  _213
REMARK   81  A    between atoms: _212  and  _215
REMARK   82  A    between atoms: _215  and  _216
REMARK   83  A    between atoms: _221  and  _224
REMARK   84  A    between atoms: _224  and  _225
REMARK   85  A    between atoms: _230  and  _231
REMARK   86  A    between atoms: _240  and  _243
REMARK   87  A    between atoms: _243  and  _244
REMARK   88  A    between atoms: _251  and  _252
REMARK   89  A    between atoms: _255  and  _257
REMARK                            x       y       z     vdW  Elec       q    Type
REMARK                         _______ _______ _______ _____ _____    ______ ____
ROOT
ATOM      1  O   HOH     1      21.776  12.920  32.986  0.00  0.00    +0.000 OA
ENDROOT
TORSDOF 0
REMARK  Name = ../refined-set-2016/4lk7/4lk7_pocket.pdb
REMARK  89 active torsions:
REMARK  status: ('A' for Active; 'I' for Inactive)
REMARK    1  A    between atoms: _1  and  _3
REMARK    2  A    between atoms: _3  and  _4
REMARK    3  A    between atoms: _3  and  _6
REMARK    4  A    between atoms: _6  and  _7
REMARK    5  A    between atoms: _9  and  _11
REMARK    6  A    between atoms: _11  and  _12
REMARK    7  A    between atoms: _11  and  _14
REMARK    8  A    between atoms: _14  and  _15
REMARK    9  A    between atoms: _20  and  _21
REMARK   10  A    between atoms: _23  and  _25
REMARK   11  A    between atoms: _25  and  _26
REMARK   12  A    between atoms: _29  and  _30
REMARK   13  A    between atoms: _35  and  _37
REMARK   14  A    between atoms: _37  and  _38
REMARK   15  A    between atoms: _37  and  _40
REMARK   16  A    between atoms: _40  and  _41
REMARK   17  A    between atoms: _44  and  _46
REMARK   18  A    between atoms: _46  and  _47
REMARK   19  A    between atoms: _46  and  _49
REMARK   20  A    between atoms: _49  and  _50
REMARK   21  A    between atoms: _50  and  _51
REMARK   22  A    between atoms: _56  and  _58
REMARK   23  A    between atoms: _58  and  _59
REMARK   24  A    between atoms: _58  and  _61
REMARK   25  A    between atoms: _61  and  _62
REMARK   26  A    between atoms: _72  and  _74
REMARK   27  A    between atoms: _74  and  _75
REMARK   28  A    between atoms: _74  and  _77
REMARK   29  A    between atoms: _77  and  _78
REMARK   30  A    between atoms: _81  and  _83
REMARK   31  A    between atoms: _83  and  _84
REMARK   32  A    between atoms: _83  and  _86
REMARK   33  A    between atoms: _86  and  _87
REMARK   34  A    between atoms: _87  and  _88
REMARK   35  A    between atoms: _91  and  _93
REMARK   36  A    between atoms: _93  and  _94
REMARK   37  A    between atoms: _93  and  _96
REMARK   38  A    between atoms: _96  and  _97
REMARK   39  A    between atoms: _103  and  _104
REMARK   40  A    between atoms: _109  and  _111
REMARK   41  A    between atoms: _111  and  _112
REMARK   42  A    between atoms: _111  and  _114
REMARK   43  A    between atoms: _114  and  _115
REMARK   44  A    between atoms: _118  and  _120
REMARK   45  A    between atoms: _120  and  _121
REMARK   46  A    between atoms: _120  and  _123
REMARK   47  A    between atoms: _123  and  _124
REMARK   48  A    between atoms: _124  and  _125
REMARK   49  A    between atoms: _130  and  _132
REMARK   50  A    between atoms: _132  and  _133
REMARK   51  A    between atoms: _135  and  _137
REMARK   52  A    between atoms: _137  and  _138
REMARK   53  A    between atoms: _137  and  _140
REMARK   54  A    between atoms: _140  and  _141
REMARK   55  A    between atoms: _144  and  _146
REMARK   56  A    between atoms: _146  and  _147
REMARK   57  A    between atoms: _146  and  _149
REMARK   58  A    between atoms: _151  and  _153
REMARK   59  A    between atoms: _153  and  _154
REMARK   60  A    between atoms: _156  and  _158
REMARK   61  A    between atoms: _158  and  _159
REMARK   62  A    between atoms: _158  and  _161
REMARK   63  A    between atoms: _161  and  _162
REMARK   64  A    between atoms: _167  and  _168
REMARK   65  A    between atoms: _170  and  _172
REMARK   66  A    between atoms: _172  and  _173
REMARK   67  A    between atoms: _172  and  _175
REMARK   68  A    between atoms: _175  and  _176
REMARK   69  A    between atoms: _181  and  _183
REMARK   70  A    between atoms: _183  and  _184
REMARK   71  A    between atoms: _183  and  _186
REMARK   72  A    between atoms: _186  and  _187
REMARK   73  A    between atoms: _190  and  _192
REMARK   74  A    between atoms: _192  and  _193
REMARK   75  A    between atoms: _192  and  _195
REMARK   76  A    between atoms: _199  and  _200
REMARK   77  A    between atoms: _205  and  _207
REMARK   78  A    between atoms: _207  and  _208
REMARK   79  A    between atoms: _210  and  _212
REMARK   80  A    between atoms: _212  and  _213
REMARK   81  A    between atoms: _212  and  _215
REMARK   82  A    between atoms: _215  and  _216
REMARK   83  A    between atoms: _221  and  _224
REMARK   84  A    between atoms: _224  and  _225
REMARK   85  A    between atoms: _230  and  _231
REMARK   86  A    between atoms: _240  and  _243
REMARK   87  A    between atoms: _243  and  _244
REMARK   88  A    between atoms: _251  and  _252
REMARK   89  A    between atoms: _255  and  _257
REMARK                            x       y       z     vdW  Elec       q    Type
REMARK                         _______ _______ _______ _____ _____    ______ ____
ROOT
ATOM      1  O   HOH     1      11.498  18.543  32.487  0.00  0.00    +0.000 OA
ENDROOT
TORSDOF 0
REMARK  Name = ../refined-set-2016/4lk7/4lk7_pocket.pdb
REMARK  89 active torsions:
REMARK  status: ('A' for Active; 'I' for Inactive)
REMARK    1  A    between atoms: _1  and  _3
REMARK    2  A    between atoms: _3  and  _4
REMARK    3  A    between atoms: _3  and  _6
REMARK    4  A    between atoms: _6  and  _7
REMARK    5  A    between atoms: _9  and  _11
REMARK    6  A    between atoms: _11  and  _12
REMARK    7  A    between atoms: _11  and  _14
REMARK    8  A    between atoms: _14  and  _15
REMARK    9  A    between atoms: _20  and  _21
REMARK   10  A    between atoms: _23  and  _25
REMARK   11  A    between atoms: _25  and  _26
REMARK   12  A    between atoms: _29  and  _30
REMARK   13  A    between atoms: _35  and  _37
REMARK   14  A    between atoms: _37  and  _38
REMARK   15  A    between atoms: _37  and  _40
REMARK   16  A    between atoms: _40  and  _41
REMARK   17  A    between atoms: _44  and  _46
REMARK   18  A    between atoms: _46  and  _47
REMARK   19  A    between atoms: _46  and  _49
REMARK   20  A    between atoms: _49  and  _50
REMARK   21  A    between atoms: _50  and  _51
REMARK   22  A    between atoms: _56  and  _58
REMARK   23  A    between atoms: _58  and  _59
REMARK   24  A    between atoms: _58  and  _61
REMARK   25  A    between atoms: _61  and  _62
REMARK   26  A    between atoms: _72  and  _74
REMARK   27  A    between atoms: _74  and  _75
REMARK   28  A    between atoms: _74  and  _77
REMARK   29  A    between atoms: _77  and  _78
REMARK   30  A    between atoms: _81  and  _83
REMARK   31  A    between atoms: _83  and  _84
REMARK   32  A    between atoms: _83  and  _86
REMARK   33  A    between atoms: _86  and  _87
REMARK   34  A    between atoms: _87  and  _88
REMARK   35  A    between atoms: _91  and  _93
REMARK   36  A    between atoms: _93  and  _94
REMARK   37  A    between atoms: _93  and  _96
REMARK   38  A    between atoms: _96  and  _97
REMARK   39  A    between atoms: _103  and  _104
REMARK   40  A    between atoms: _109  and  _111
REMARK   41  A    between atoms: _111  and  _112
REMARK   42  A    between atoms: _111  and  _114
REMARK   43  A    between atoms: _114  and  _115
REMARK   44  A    between atoms: _118  and  _120
REMARK   45  A    between atoms: _120  and  _121
REMARK   46  A    between atoms: _120  and  _123
REMARK   47  A    between atoms: _123  and  _124
REMARK   48  A    between atoms: _124  and  _125
REMARK   49  A    between atoms: _130  and  _132
REMARK   50  A    between atoms: _132  and  _133
REMARK   51  A    between atoms: _135  and  _137
REMARK   52  A    between atoms: _137  and  _138
REMARK   53  A    between atoms: _137  and  _140
REMARK   54  A    between atoms: _140  and  _141
REMARK   55  A    between atoms: _144  and  _146
REMARK   56  A    between atoms: _146  and  _147
REMARK   57  A    between atoms: _146  and  _149
REMARK   58  A    between atoms: _151  and  _153
REMARK   59  A    between atoms: _153  and  _154
REMARK   60  A    between atoms: _156  and  _158
REMARK   61  A    between atoms: _158  and  _159
REMARK   62  A    between atoms: _158  and  _161
REMARK   63  A    between atoms: _161  and  _162
REMARK   64  A    between atoms: _167  and  _168
REMARK   65  A    between atoms: _170  and  _172
REMARK   66  A    between atoms: _172  and  _173
REMARK   67  A    between atoms: _172  and  _175
REMARK   68  A    between atoms: _175  and  _176
REMARK   69  A    between atoms: _181  and  _183
REMARK   70  A    between atoms: _183  and  _184
REMARK   71  A    between atoms: _183  and  _186
REMARK   72  A    between atoms: _186  and  _187
REMARK   73  A    between atoms: _190  and  _192
REMARK   74  A    between atoms: _192  and  _193
REMARK   75  A    between atoms: _192  and  _195
REMARK   76  A    between atoms: _199  and  _200
REMARK   77  A    between atoms: _205  and  _207
REMARK   78  A    between atoms: _207  and  _208
REMARK   79  A    between atoms: _210  and  _212
REMARK   80  A    between atoms: _212  and  _213
REMARK   81  A    between atoms: _212  and  _215
REMARK   82  A    between atoms: _215  and  _216
REMARK   83  A    between atoms: _221  and  _224
REMARK   84  A    between atoms: _224  and  _225
REMARK   85  A    between atoms: _230  and  _231
REMARK   86  A    between atoms: _240  and  _243
REMARK   87  A    between atoms: _243  and  _244
REMARK   88  A    between atoms: _251  and  _252
REMARK   89  A    between atoms: _255  and  _257
REMARK                            x       y       z     vdW  Elec       q    Type
REMARK                         _______ _______ _______ _____ _____    ______ ____
ROOT
ATOM      1  O   HOH     1      20.235  14.347  35.112  0.00  0.00    +0.000 OA
ENDROOT
TORSDOF 0
REMARK  Name = ../refined-set-2016/4lk7/4lk7_pocket.pdb
REMARK  89 active torsions:
REMARK  status: ('A' for Active; 'I' for Inactive)
REMARK    1  A    between atoms: _1  and  _3
REMARK    2  A    between atoms: _3  and  _4
REMARK    3  A    between atoms: _3  and  _6
REMARK    4  A    between atoms: _6  and  _7
REMARK    5  A    between atoms: _9  and  _11
REMARK    6  A    between atoms: _11  and  _12
REMARK    7  A    between atoms: _11  and  _14
REMARK    8  A    between atoms: _14  and  _15
REMARK    9  A    between atoms: _20  and  _21
REMARK   10  A    between atoms: _23  and  _25
REMARK   11  A    between atoms: _25  and  _26
REMARK   12  A    between atoms: _29  and  _30
REMARK   13  A    between atoms: _35  and  _37
REMARK   14  A    between atoms: _37  and  _38
REMARK   15  A    between atoms: _37  and  _40
REMARK   16  A    between atoms: _40  and  _41
REMARK   17  A    between atoms: _44  and  _46
REMARK   18  A    between atoms: _46  and  _47
REMARK   19  A    between atoms: _46  and  _49
REMARK   20  A    between atoms: _49  and  _50
REMARK   21  A    between atoms: _50  and  _51
REMARK   22  A    between atoms: _56  and  _58
REMARK   23  A    between atoms: _58  and  _59
REMARK   24  A    between atoms: _58  and  _61
REMARK   25  A    between atoms: _61  and  _62
REMARK   26  A    between atoms: _72  and  _74
REMARK   27  A    between atoms: _74  and  _75
REMARK   28  A    between atoms: _74  and  _77
REMARK   29  A    between atoms: _77  and  _78
REMARK   30  A    between atoms: _81  and  _83
REMARK   31  A    between atoms: _83  and  _84
REMARK   32  A    between atoms: _83  and  _86
REMARK   33  A    between atoms: _86  and  _87
REMARK   34  A    between atoms: _87  and  _88
REMARK   35  A    between atoms: _91  and  _93
REMARK   36  A    between atoms: _93  and  _94
REMARK   37  A    between atoms: _93  and  _96
REMARK   38  A    between atoms: _96  and  _97
REMARK   39  A    between atoms: _103  and  _104
REMARK   40  A    between atoms: _109  and  _111
REMARK   41  A    between atoms: _111  and  _112
REMARK   42  A    between atoms: _111  and  _114
REMARK   43  A    between atoms: _114  and  _115
REMARK   44  A    between atoms: _118  and  _120
REMARK   45  A    between atoms: _120  and  _121
REMARK   46  A    between atoms: _120  and  _123
REMARK   47  A    between atoms: _123  and  _124
REMARK   48  A    between atoms: _124  and  _125
REMARK   49  A    between atoms: _130  and  _132
REMARK   50  A    between atoms: _132  and  _133
REMARK   51  A    between atoms: _135  and  _137
REMARK   52  A    between atoms: _137  and  _138
REMARK   53  A    between atoms: _137  and  _140
REMARK   54  A    between atoms: _140  and  _141
REMARK   55  A    between atoms: _144  and  _146
REMARK   56  A    between atoms: _146  and  _147
REMARK   57  A    between atoms: _146  and  _149
REMARK   58  A    between atoms: _151  and  _153
REMARK   59  A    between atoms: _153  and  _154
REMARK   60  A    between atoms: _156  and  _158
REMARK   61  A    between atoms: _158  and  _159
REMARK   62  A    between atoms: _158  and  _161
REMARK   63  A    between atoms: _161  and  _162
REMARK   64  A    between atoms: _167  and  _168
REMARK   65  A    between atoms: _170  and  _172
REMARK   66  A    between atoms: _172  and  _173
REMARK   67  A    between atoms: _172  and  _175
REMARK   68  A    between atoms: _175  and  _176
REMARK   69  A    between atoms: _181  and  _183
REMARK   70  A    between atoms: _183  and  _184
REMARK   71  A    between atoms: _183  and  _186
REMARK   72  A    between atoms: _186  and  _187
REMARK   73  A    between atoms: _190  and  _192
REMARK   74  A    between atoms: _192  and  _193
REMARK   75  A    between atoms: _192  and  _195
REMARK   76  A    between atoms: _199  and  _200
REMARK   77  A    between atoms: _205  and  _207
REMARK   78  A    between atoms: _207  and  _208
REMARK   79  A    between atoms: _210  and  _212
REMARK   80  A    between atoms: _212  and  _213
REMARK   81  A    between atoms: _212  and  _215
REMARK   82  A    between atoms: _215  and  _216
REMARK   83  A    between atoms: _221  and  _224
REMARK   84  A    between atoms: _224  and  _225
REMARK   85  A    between atoms: _230  and  _231
REMARK   86  A    between atoms: _240  and  _243
REMARK   87  A    between atoms: _243  and  _244
REMARK   88  A    between atoms: _251  and  _252
REMARK   89  A    between atoms: _255  and  _257
REMARK                            x       y       z     vdW  Elec       q    Type
REMARK                         _______ _______ _______ _____ _____    ______ ____
ROOT
ATOM      1  O   HOH     1      25.739   8.835  31.722  0.00  0.00    +0.000 OA
ENDROOT
TORSDOF 0
REMARK  Name = ../refined-set-2016/4lk7/4lk7_pocket.pdb
REMARK  89 active torsions:
REMARK  status: ('A' for Active; 'I' for Inactive)
REMARK    1  A    between atoms: _1  and  _3
REMARK    2  A    between atoms: _3  and  _4
REMARK    3  A    between atoms: _3  and  _6
REMARK    4  A    between atoms: _6  and  _7
REMARK    5  A    between atoms: _9  and  _11
REMARK    6  A    between atoms: _11  and  _12
REMARK    7  A    between atoms: _11  and  _14
REMARK    8  A    between atoms: _14  and  _15
REMARK    9  A    between atoms: _20  and  _21
REMARK   10  A    between atoms: _23  and  _25
REMARK   11  A    between atoms: _25  and  _26
REMARK   12  A    between atoms: _29  and  _30
REMARK   13  A    between atoms: _35  and  _37
REMARK   14  A    between atoms: _37  and  _38
REMARK   15  A    between atoms: _37  and  _40
REMARK   16  A    between atoms: _40  and  _41
REMARK   17  A    between atoms: _44  and  _46
REMARK   18  A    between atoms: _46  and  _47
REMARK   19  A    between atoms: _46  and  _49
REMARK   20  A    between atoms: _49  and  _50
REMARK   21  A    between atoms: _50  and  _51
REMARK   22  A    between atoms: _56  and  _58
REMARK   23  A    between atoms: _58  and  _59
REMARK   24  A    between atoms: _58  and  _61
REMARK   25  A    between atoms: _61  and  _62
REMARK   26  A    between atoms: _72  and  _74
REMARK   27  A    between atoms: _74  and  _75
REMARK   28  A    between atoms: _74  and  _77
REMARK   29  A    between atoms: _77  and  _78
REMARK   30  A    between atoms: _81  and  _83
REMARK   31  A    between atoms: _83  and  _84
REMARK   32  A    between atoms: _83  and  _86
REMARK   33  A    between atoms: _86  and  _87
REMARK   34  A    between atoms: _87  and  _88
REMARK   35  A    between atoms: _91  and  _93
REMARK   36  A    between atoms: _93  and  _94
REMARK   37  A    between atoms: _93  and  _96
REMARK   38  A    between atoms: _96  and  _97
REMARK   39  A    between atoms: _103  and  _104
REMARK   40  A    between atoms: _109  and  _111
REMARK   41  A    between atoms: _111  and  _112
REMARK   42  A    between atoms: _111  and  _114
REMARK   43  A    between atoms: _114  and  _115
REMARK   44  A    between atoms: _118  and  _120
REMARK   45  A    between atoms: _120  and  _121
REMARK   46  A    between atoms: _120  and  _123
REMARK   47  A    between atoms: _123  and  _124
REMARK   48  A    between atoms: _124  and  _125
REMARK   49  A    between atoms: _130  and  _132
REMARK   50  A    between atoms: _132  and  _133
REMARK   51  A    between atoms: _135  and  _137
REMARK   52  A    between atoms: _137  and  _138
REMARK   53  A    between atoms: _137  and  _140
REMARK   54  A    between atoms: _140  and  _141
REMARK   55  A    between atoms: _144  and  _146
REMARK   56  A    between atoms: _146  and  _147
REMARK   57  A    between atoms: _146  and  _149
REMARK   58  A    between atoms: _151  and  _153
REMARK   59  A    between atoms: _153  and  _154
REMARK   60  A    between atoms: _156  and  _158
REMARK   61  A    between atoms: _158  and  _159
REMARK   62  A    between atoms: _158  and  _161
REMARK   63  A    between atoms: _161  and  _162
REMARK   64  A    between atoms: _167  and  _168
REMARK   65  A    between atoms: _170  and  _172
REMARK   66  A    between atoms: _172  and  _173
REMARK   67  A    between atoms: _172  and  _175
REMARK   68  A    between atoms: _175  and  _176
REMARK   69  A    between atoms: _181  and  _183
REMARK   70  A    between atoms: _183  and  _184
REMARK   71  A    between atoms: _183  and  _186
REMARK   72  A    between atoms: _186  and  _187
REMARK   73  A    between atoms: _190  and  _192
REMARK   74  A    between atoms: _192  and  _193
REMARK   75  A    between atoms: _192  and  _195
REMARK   76  A    between atoms: _199  and  _200
REMARK   77  A    between atoms: _205  and  _207
REMARK   78  A    between atoms: _207  and  _208
REMARK   79  A    between atoms: _210  and  _212
REMARK   80  A    between atoms: _212  and  _213
REMARK   81  A    between atoms: _212  and  _215
REMARK   82  A    between atoms: _215  and  _216
REMARK   83  A    between atoms: _221  and  _224
REMARK   84  A    between atoms: _224  and  _225
REMARK   85  A    between atoms: _230  and  _231
REMARK   86  A    between atoms: _240  and  _243
REMARK   87  A    between atoms: _243  and  _244
REMARK   88  A    between atoms: _251  and  _252
REMARK   89  A    between atoms: _255  and  _257
REMARK                            x       y       z     vdW  Elec       q    Type
REMARK                         _______ _______ _______ _____ _____    ______ ____
ROOT
ATOM      1  O   HOH     1      19.916  12.849  36.782  0.00  0.00    +0.000 OA
ENDROOT
TORSDOF 0
REMARK  Name = ../refined-set-2016/4lk7/4lk7_pocket.pdb
REMARK  89 active torsions:
REMARK  status: ('A' for Active; 'I' for Inactive)
REMARK    1  A    between atoms: _1  and  _3
REMARK    2  A    between atoms: _3  and  _4
REMARK    3  A    between atoms: _3  and  _6
REMARK    4  A    between atoms: _6  and  _7
REMARK    5  A    between atoms: _9  and  _11
REMARK    6  A    between atoms: _11  and  _12
REMARK    7  A    between atoms: _11  and  _14
REMARK    8  A    between atoms: _14  and  _15
REMARK    9  A    between atoms: _20  and  _21
REMARK   10  A    between atoms: _23  and  _25
REMARK   11  A    between atoms: _25  and  _26
REMARK   12  A    between atoms: _29  and  _30
REMARK   13  A    between atoms: _35  and  _37
REMARK   14  A    between atoms: _37  and  _38
REMARK   15  A    between atoms: _37  and  _40
REMARK   16  A    between atoms: _40  and  _41
REMARK   17  A    between atoms: _44  and  _46
REMARK   18  A    between atoms: _46  and  _47
REMARK   19  A    between atoms: _46  and  _49
REMARK   20  A    between atoms: _49  and  _50
REMARK   21  A    between atoms: _50  and  _51
REMARK   22  A    between atoms: _56  and  _58
REMARK   23  A    between atoms: _58  and  _59
REMARK   24  A    between atoms: _58  and  _61
REMARK   25  A    between atoms: _61  and  _62
REMARK   26  A    between atoms: _72  and  _74
REMARK   27  A    between atoms: _74  and  _75
REMARK   28  A    between atoms: _74  and  _77
REMARK   29  A    between atoms: _77  and  _78
REMARK   30  A    between atoms: _81  and  _83
REMARK   31  A    between atoms: _83  and  _84
REMARK   32  A    between atoms: _83  and  _86
REMARK   33  A    between atoms: _86  and  _87
REMARK   34  A    between atoms: _87  and  _88
REMARK   35  A    between atoms: _91  and  _93
REMARK   36  A    between atoms: _93  and  _94
REMARK   37  A    between atoms: _93  and  _96
REMARK   38  A    between atoms: _96  and  _97
REMARK   39  A    between atoms: _103  and  _104
REMARK   40  A    between atoms: _109  and  _111
REMARK   41  A    between atoms: _111  and  _112
REMARK   42  A    between atoms: _111  and  _114
REMARK   43  A    between atoms: _114  and  _115
REMARK   44  A    between atoms: _118  and  _120
REMARK   45  A    between atoms: _120  and  _121
REMARK   46  A    between atoms: _120  and  _123
REMARK   47  A    between atoms: _123  and  _124
REMARK   48  A    between atoms: _124  and  _125
REMARK   49  A    between atoms: _130  and  _132
REMARK   50  A    between atoms: _132  and  _133
REMARK   51  A    between atoms: _135  and  _137
REMARK   52  A    between atoms: _137  and  _138
REMARK   53  A    between atoms: _137  and  _140
REMARK   54  A    between atoms: _140  and  _141
REMARK   55  A    between atoms: _144  and  _146
REMARK   56  A    between atoms: _146  and  _147
REMARK   57  A    between atoms: _146  and  _149
REMARK   58  A    between atoms: _151  and  _153
REMARK   59  A    between atoms: _153  and  _154
REMARK   60  A    between atoms: _156  and  _158
REMARK   61  A    between atoms: _158  and  _159
REMARK   62  A    between atoms: _158  and  _161
REMARK   63  A    between atoms: _161  and  _162
REMARK   64  A    between atoms: _167  and  _168
REMARK   65  A    between atoms: _170  and  _172
REMARK   66  A    between atoms: _172  and  _173
REMARK   67  A    between atoms: _172  and  _175
REMARK   68  A    between atoms: _175  and  _176
REMARK   69  A    between atoms: _181  and  _183
REMARK   70  A    between atoms: _183  and  _184
REMARK   71  A    between atoms: _183  and  _186
REMARK   72  A    between atoms: _186  and  _187
REMARK   73  A    between atoms: _190  and  _192
REMARK   74  A    between atoms: _192  and  _193
REMARK   75  A    between atoms: _192  and  _195
REMARK   76  A    between atoms: _199  and  _200
REMARK   77  A    between atoms: _205  and  _207
REMARK   78  A    between atoms: _207  and  _208
REMARK   79  A    between atoms: _210  and  _212
REMARK   80  A    between atoms: _212  and  _213
REMARK   81  A    between atoms: _212  and  _215
REMARK   82  A    between atoms: _215  and  _216
REMARK   83  A    between atoms: _221  and  _224
REMARK   84  A    between atoms: _224  and  _225
REMARK   85  A    between atoms: _230  and  _231
REMARK   86  A    between atoms: _240  and  _243
REMARK   87  A    between atoms: _243  and  _244
REMARK   88  A    between atoms: _251  and  _252
REMARK   89  A    between atoms: _255  and  _257
REMARK                            x       y       z     vdW  Elec       q    Type
REMARK                         _______ _______ _______ _____ _____    ______ ____
ROOT
ATOM      1  O   HOH     1      13.168  19.339  34.080  0.00  0.00    +0.000 OA
ENDROOT
TORSDOF 0
REMARK  Name = ../refined-set-2016/4lk7/4lk7_pocket.pdb
REMARK  89 active torsions:
REMARK  status: ('A' for Active; 'I' for Inactive)
REMARK    1  A    between atoms: _1  and  _3
REMARK    2  A    between atoms: _3  and  _4
REMARK    3  A    between atoms: _3  and  _6
REMARK    4  A    between atoms: _6  and  _7
REMARK    5  A    between atoms: _9  and  _11
REMARK    6  A    between atoms: _11  and  _12
REMARK    7  A    between atoms: _11  and  _14
REMARK    8  A    between atoms: _14  and  _15
REMARK    9  A    between atoms: _20  and  _21
REMARK   10  A    between atoms: _23  and  _25
REMARK   11  A    between atoms: _25  and  _26
REMARK   12  A    between atoms: _29  and  _30
REMARK   13  A    between atoms: _35  and  _37
REMARK   14  A    between atoms: _37  and  _38
REMARK   15  A    between atoms: _37  and  _40
REMARK   16  A    between atoms: _40  and  _41
REMARK   17  A    between atoms: _44  and  _46
REMARK   18  A    between atoms: _46  and  _47
REMARK   19  A    between atoms: _46  and  _49
REMARK   20  A    between atoms: _49  and  _50
REMARK   21  A    between atoms: _50  and  _51
REMARK   22  A    between atoms: _56  and  _58
REMARK   23  A    between atoms: _58  and  _59
REMARK   24  A    between atoms: _58  and  _61
REMARK   25  A    between atoms: _61  and  _62
REMARK   26  A    between atoms: _72  and  _74
REMARK   27  A    between atoms: _74  and  _75
REMARK   28  A    between atoms: _74  and  _77
REMARK   29  A    between atoms: _77  and  _78
REMARK   30  A    between atoms: _81  and  _83
REMARK   31  A    between atoms: _83  and  _84
REMARK   32  A    between atoms: _83  and  _86
REMARK   33  A    between atoms: _86  and  _87
REMARK   34  A    between atoms: _87  and  _88
REMARK   35  A    between atoms: _91  and  _93
REMARK   36  A    between atoms: _93  and  _94
REMARK   37  A    between atoms: _93  and  _96
REMARK   38  A    between atoms: _96  and  _97
REMARK   39  A    between atoms: _103  and  _104
REMARK   40  A    between atoms: _109  and  _111
REMARK   41  A    between atoms: _111  and  _112
REMARK   42  A    between atoms: _111  and  _114
REMARK   43  A    between atoms: _114  and  _115
REMARK   44  A    between atoms: _118  and  _120
REMARK   45  A    between atoms: _120  and  _121
REMARK   46  A    between atoms: _120  and  _123
REMARK   47  A    between atoms: _123  and  _124
REMARK   48  A    between atoms: _124  and  _125
REMARK   49  A    between atoms: _130  and  _132
REMARK   50  A    between atoms: _132  and  _133
REMARK   51  A    between atoms: _135  and  _137
REMARK   52  A    between atoms: _137  and  _138
REMARK   53  A    between atoms: _137  and  _140
REMARK   54  A    between atoms: _140  and  _141
REMARK   55  A    between atoms: _144  and  _146
REMARK   56  A    between atoms: _146  and  _147
REMARK   57  A    between atoms: _146  and  _149
REMARK   58  A    between atoms: _151  and  _153
REMARK   59  A    between atoms: _153  and  _154
REMARK   60  A    between atoms: _156  and  _158
REMARK   61  A    between atoms: _158  and  _159
REMARK   62  A    between atoms: _158  and  _161
REMARK   63  A    between atoms: _161  and  _162
REMARK   64  A    between atoms: _167  and  _168
REMARK   65  A    between atoms: _170  and  _172
REMARK   66  A    between atoms: _172  and  _173
REMARK   67  A    between atoms: _172  and  _175
REMARK   68  A    between atoms: _175  and  _176
REMARK   69  A    between atoms: _181  and  _183
REMARK   70  A    between atoms: _183  and  _184
REMARK   71  A    between atoms: _183  and  _186
REMARK   72  A    between atoms: _186  and  _187
REMARK   73  A    between atoms: _190  and  _192
REMARK   74  A    between atoms: _192  and  _193
REMARK   75  A    between atoms: _192  and  _195
REMARK   76  A    between atoms: _199  and  _200
REMARK   77  A    between atoms: _205  and  _207
REMARK   78  A    between atoms: _207  and  _208
REMARK   79  A    between atoms: _210  and  _212
REMARK   80  A    between atoms: _212  and  _213
REMARK   81  A    between atoms: _212  and  _215
REMARK   82  A    between atoms: _215  and  _216
REMARK   83  A    between atoms: _221  and  _224
REMARK   84  A    between atoms: _224  and  _225
REMARK   85  A    between atoms: _230  and  _231
REMARK   86  A    between atoms: _240  and  _243
REMARK   87  A    between atoms: _243  and  _244
REMARK   88  A    between atoms: _251  and  _252
REMARK   89  A    between atoms: _255  and  _257
REMARK                            x       y       z     vdW  Elec       q    Type
REMARK                         _______ _______ _______ _____ _____    ______ ____
ROOT
ATOM      1  O   HOH     1      24.017  14.464  31.636  0.00  0.00    +0.000 OA
ENDROOT
TORSDOF 0
REMARK  Name = ../refined-set-2016/4lk7/4lk7_pocket.pdb
REMARK  89 active torsions:
REMARK  status: ('A' for Active; 'I' for Inactive)
REMARK    1  A    between atoms: _1  and  _3
REMARK    2  A    between atoms: _3  and  _4
REMARK    3  A    between atoms: _3  and  _6
REMARK    4  A    between atoms: _6  and  _7
REMARK    5  A    between atoms: _9  and  _11
REMARK    6  A    between atoms: _11  and  _12
REMARK    7  A    between atoms: _11  and  _14
REMARK    8  A    between atoms: _14  and  _15
REMARK    9  A    between atoms: _20  and  _21
REMARK   10  A    between atoms: _23  and  _25
REMARK   11  A    between atoms: _25  and  _26
REMARK   12  A    between atoms: _29  and  _30
REMARK   13  A    between atoms: _35  and  _37
REMARK   14  A    between atoms: _37  and  _38
REMARK   15  A    between atoms: _37  and  _40
REMARK   16  A    between atoms: _40  and  _41
REMARK   17  A    between atoms: _44  and  _46
REMARK   18  A    between atoms: _46  and  _47
REMARK   19  A    between atoms: _46  and  _49
REMARK   20  A    between atoms: _49  and  _50
REMARK   21  A    between atoms: _50  and  _51
REMARK   22  A    between atoms: _56  and  _58
REMARK   23  A    between atoms: _58  and  _59
REMARK   24  A    between atoms: _58  and  _61
REMARK   25  A    between atoms: _61  and  _62
REMARK   26  A    between atoms: _72  and  _74
REMARK   27  A    between atoms: _74  and  _75
REMARK   28  A    between atoms: _74  and  _77
REMARK   29  A    between atoms: _77  and  _78
REMARK   30  A    between atoms: _81  and  _83
REMARK   31  A    between atoms: _83  and  _84
REMARK   32  A    between atoms: _83  and  _86
REMARK   33  A    between atoms: _86  and  _87
REMARK   34  A    between atoms: _87  and  _88
REMARK   35  A    between atoms: _91  and  _93
REMARK   36  A    between atoms: _93  and  _94
REMARK   37  A    between atoms: _93  and  _96
REMARK   38  A    between atoms: _96  and  _97
REMARK   39  A    between atoms: _103  and  _104
REMARK   40  A    between atoms: _109  and  _111
REMARK   41  A    between atoms: _111  and  _112
REMARK   42  A    between atoms: _111  and  _114
REMARK   43  A    between atoms: _114  and  _115
REMARK   44  A    between atoms: _118  and  _120
REMARK   45  A    between atoms: _120  and  _121
REMARK   46  A    between atoms: _120  and  _123
REMARK   47  A    between atoms: _123  and  _124
REMARK   48  A    between atoms: _124  and  _125
REMARK   49  A    between atoms: _130  and  _132
REMARK   50  A    between atoms: _132  and  _133
REMARK   51  A    between atoms: _135  and  _137
REMARK   52  A    between atoms: _137  and  _138
REMARK   53  A    between atoms: _137  and  _140
REMARK   54  A    between atoms: _140  and  _141
REMARK   55  A    between atoms: _144  and  _146
REMARK   56  A    between atoms: _146  and  _147
REMARK   57  A    between atoms: _146  and  _149
REMARK   58  A    between atoms: _151  and  _153
REMARK   59  A    between atoms: _153  and  _154
REMARK   60  A    between atoms: _156  and  _158
REMARK   61  A    between atoms: _158  and  _159
REMARK   62  A    between atoms: _158  and  _161
REMARK   63  A    between atoms: _161  and  _162
REMARK   64  A    between atoms: _167  and  _168
REMARK   65  A    between atoms: _170  and  _172
REMARK   66  A    between atoms: _172  and  _173
REMARK   67  A    between atoms: _172  and  _175
REMARK   68  A    between atoms: _175  and  _176
REMARK   69  A    between atoms: _181  and  _183
REMARK   70  A    between atoms: _183  and  _184
REMARK   71  A    between atoms: _183  and  _186
REMARK   72  A    between atoms: _186  and  _187
REMARK   73  A    between atoms: _190  and  _192
REMARK   74  A    between atoms: _192  and  _193
REMARK   75  A    between atoms: _192  and  _195
REMARK   76  A    between atoms: _199  and  _200
REMARK   77  A    between atoms: _205  and  _207
REMARK   78  A    between atoms: _207  and  _208
REMARK   79  A    between atoms: _210  and  _212
REMARK   80  A    between atoms: _212  and  _213
REMARK   81  A    between atoms: _212  and  _215
REMARK   82  A    between atoms: _215  and  _216
REMARK   83  A    between atoms: _221  and  _224
REMARK   84  A    between atoms: _224  and  _225
REMARK   85  A    between atoms: _230  and  _231
REMARK   86  A    between atoms: _240  and  _243
REMARK   87  A    between atoms: _243  and  _244
REMARK   88  A    between atoms: _251  and  _252
REMARK   89  A    between atoms: _255  and  _257
REMARK                            x       y       z     vdW  Elec       q    Type
REMARK                         _______ _______ _______ _____ _____    ______ ____
ROOT
ATOM      1  O   HOH     1      13.035  27.907  33.539  0.00  0.00    +0.000 OA
ENDROOT
TORSDOF 0
