REMARK  Name = ../refined-set-2016/2fvd/2fvd_pocket.pdb
REMARK  234 active torsions:
REMARK  status: ('A' for Active; 'I' for Inactive)
REMARK    1  A    between atoms: _1  and  _3
REMARK    2  A    between atoms: _3  and  _4
REMARK    3  A    between atoms: _3  and  _6
REMARK    4  A    between atoms: _6  and  _7
REMARK    5  A    between atoms: _7  and  _8
REMARK    6  A    between atoms: _11  and  _13
REMARK    7  A    between atoms: _13  and  _14
REMARK    8  A    between atoms: _13  and  _16
REMARK    9  A    between atoms: _16  and  _17
REMARK   10  A    between atoms: _17  and  _18
REMARK   11  A    between atoms: _18  and  _19
REMARK   12  A    between atoms: _19  and  _20
REMARK   13  A    between atoms: _24  and  _26
REMARK   14  A    between atoms: _26  and  _27
REMARK   15  A    between atoms: _26  and  _29
REMARK   16  A    between atoms: _29  and  _30
REMARK   17  A    between atoms: _33  and  _35
REMARK   18  A    between atoms: _35  and  _36
REMARK   19  A    between atoms: _38  and  _40
REMARK   20  A    between atoms: _40  and  _41
REMARK   21  A    between atoms: _40  and  _43
REMARK   22  A    between atoms: _43  and  _44
REMARK   23  A    between atoms: _44  and  _45
REMARK   24  A    between atoms: _48  and  _50
REMARK   25  A    between atoms: _50  and  _51
REMARK   26  A    between atoms: _53  and  _55
REMARK   27  A    between atoms: _55  and  _56
REMARK   28  A    between atoms: _55  and  _58
REMARK   29  A    between atoms: _58  and  _59
REMARK   30  A    between atoms: _62  and  _64
REMARK   31  A    between atoms: _64  and  _65
REMARK   32  A    between atoms: _64  and  _67
REMARK   33  A    between atoms: _67  and  _68
REMARK   34  A    between atoms: _73  and  _74
REMARK   35  A    between atoms: _76  and  _78
REMARK   36  A    between atoms: _78  and  _79
REMARK   37  A    between atoms: _81  and  _83
REMARK   38  A    between atoms: _83  and  _84
REMARK   39  A    between atoms: _83  and  _86
REMARK   40  A    between atoms: _89  and  _91
REMARK   41  A    between atoms: _91  and  _92
REMARK   42  A    between atoms: _91  and  _94
REMARK   43  A    between atoms: _97  and  _99
REMARK   44  A    between atoms: _99  and  _100
REMARK   45  A    between atoms: _99  and  _102
REMARK   46  A    between atoms: _102  and  _103
REMARK   47  A    between atoms: _108  and  _109
REMARK   48  A    between atoms: _111  and  _113
REMARK   49  A    between atoms: _113  and  _114
REMARK   50  A    between atoms: _113  and  _116
REMARK   51  A    between atoms: _116  and  _117
REMARK   52  A    between atoms: _117  and  _118
REMARK   53  A    between atoms: _118  and  _119
REMARK   54  A    between atoms: _119  and  _120
REMARK   55  A    between atoms: _124  and  _126
REMARK   56  A    between atoms: _126  and  _127
REMARK   57  A    between atoms: _126  and  _129
REMARK   58  A    between atoms: _132  and  _134
REMARK   59  A    between atoms: _134  and  _135
REMARK   60  A    between atoms: _134  and  _137
REMARK   61  A    between atoms: _140  and  _142
REMARK   62  A    between atoms: _142  and  _143
REMARK   63  A    between atoms: _146  and  _148
REMARK   64  A    between atoms: _148  and  _149
REMARK   65  A    between atoms: _148  and  _151
REMARK   66  A    between atoms: _151  and  _152
REMARK   67  A    between atoms: _155  and  _157
REMARK   68  A    between atoms: _157  and  _158
REMARK   69  A    between atoms: _157  and  _160
REMARK   70  A    between atoms: _160  and  _161
REMARK   71  A    between atoms: _161  and  _162
REMARK   72  A    between atoms: _162  and  _163
REMARK   73  A    between atoms: _163  and  _164
REMARK   74  A    between atoms: _168  and  _170
REMARK   75  A    between atoms: _170  and  _171
REMARK   76  A    between atoms: _170  and  _173
REMARK   77  A    between atoms: _173  and  _174
REMARK   78  A    between atoms: _174  and  _175
REMARK   79  A    between atoms: _175  and  _176
REMARK   80  A    between atoms: _176  and  _177
REMARK   81  A    between atoms: _181  and  _183
REMARK   82  A    between atoms: _183  and  _184
REMARK   83  A    between atoms: _183  and  _186
REMARK   84  A    between atoms: _186  and  _187
REMARK   85  A    between atoms: _190  and  _192
REMARK   86  A    between atoms: _192  and  _193
REMARK   87  A    between atoms: _192  and  _195
REMARK   88  A    between atoms: _198  and  _200
REMARK   89  A    between atoms: _200  and  _201
REMARK   90  A    between atoms: _200  and  _203
REMARK   91  A    between atoms: _203  and  _204
REMARK   92  A    between atoms: _204  and  _205
REMARK   93  A    between atoms: _205  and  _206
REMARK   94  A    between atoms: _206  and  _207
REMARK   95  A    between atoms: _211  and  _213
REMARK   96  A    between atoms: _213  and  _214
REMARK   97  A    between atoms: _213  and  _216
REMARK   98  A    between atoms: _216  and  _217
REMARK   99  A    between atoms: _220  and  _222
REMARK  100  A    between atoms: _222  and  _223
REMARK  101  A    between atoms: _222  and  _225
REMARK  102  A    between atoms: _225  and  _226
REMARK  103  A    between atoms: _229  and  _231
REMARK  104  A    between atoms: _231  and  _232
REMARK  105  A    between atoms: _231  and  _234
REMARK  106  A    between atoms: _234  and  _235
REMARK  107  A    between atoms: _238  and  _240
REMARK  108  A    between atoms: _240  and  _241
REMARK  109  A    between atoms: _240  and  _243
REMARK  110  A    between atoms: _246  and  _248
REMARK  111  A    between atoms: _248  and  _249
REMARK  112  A    between atoms: _248  and  _251
REMARK  113  A    between atoms: _251  and  _252
REMARK  114  A    between atoms: _258  and  _260
REMARK  115  A    between atoms: _260  and  _261
REMARK  116  A    between atoms: _260  and  _263
REMARK  117  A    between atoms: _263  and  _264
REMARK  118  A    between atoms: _264  and  _265
REMARK  119  A    between atoms: _268  and  _270
REMARK  120  A    between atoms: _270  and  _271
REMARK  121  A    between atoms: _270  and  _273
REMARK  122  A    between atoms: _273  and  _274
REMARK  123  A    between atoms: _280  and  _282
REMARK  124  A    between atoms: _282  and  _283
REMARK  125  A    between atoms: _282  and  _285
REMARK  126  A    between atoms: _285  and  _286
REMARK  127  A    between atoms: _289  and  _291
REMARK  128  A    between atoms: _291  and  _292
REMARK  129  A    between atoms: _291  and  _294
REMARK  130  A    between atoms: _294  and  _295
REMARK  131  A    between atoms: _300  and  _302
REMARK  132  A    between atoms: _302  and  _303
REMARK  133  A    between atoms: _302  and  _305
REMARK  134  A    between atoms: _305  and  _306
REMARK  135  A    between atoms: _306  and  _307
REMARK  136  A    between atoms: _312  and  _314
REMARK  137  A    between atoms: _314  and  _315
REMARK  138  A    between atoms: _314  and  _317
REMARK  139  A    between atoms: _317  and  _318
REMARK  140  A    between atoms: _321  and  _323
REMARK  141  A    between atoms: _323  and  _324
REMARK  142  A    between atoms: _323  and  _326
REMARK  143  A    between atoms: _326  and  _327
REMARK  144  A    between atoms: _330  and  _332
REMARK  145  A    between atoms: _332  and  _333
REMARK  146  A    between atoms: _332  and  _335
REMARK  147  A    between atoms: _335  and  _336
REMARK  148  A    between atoms: _336  and  _337
REMARK  149  A    between atoms: _337  and  _338
REMARK  150  A    between atoms: _338  and  _339
REMARK  151  A    between atoms: _343  and  _345
REMARK  152  A    between atoms: _345  and  _346
REMARK  153  A    between atoms: _345  and  _348
REMARK  154  A    between atoms: _348  and  _349
REMARK  155  A    between atoms: _349  and  _350
REMARK  156  A    between atoms: _350  and  _351
REMARK  157  A    between atoms: _351  and  _352
REMARK  158  A    between atoms: _356  and  _358
REMARK  159  A    between atoms: _358  and  _359
REMARK  160  A    between atoms: _358  and  _361
REMARK  161  A    between atoms: _361  and  _362
REMARK  162  A    between atoms: _368  and  _370
REMARK  163  A    between atoms: _370  and  _371
REMARK  164  A    between atoms: _370  and  _373
REMARK  165  A    between atoms: _373  and  _374
REMARK  166  A    between atoms: _374  and  _375
REMARK  167  A    between atoms: _377  and  _379
REMARK  168  A    between atoms: _379  and  _380
REMARK  169  A    between atoms: _379  and  _382
REMARK  170  A    between atoms: _382  and  _383
REMARK  171  A    between atoms: _388  and  _390
REMARK  172  A    between atoms: _390  and  _391
REMARK  173  A    between atoms: _390  and  _393
REMARK  174  A    between atoms: _393  and  _394
REMARK  175  A    between atoms: _394  and  _395
REMARK  176  A    between atoms: _395  and  _396
REMARK  177  A    between atoms: _396  and  _397
REMARK  178  A    between atoms: _402  and  _403
REMARK  179  A    between atoms: _408  and  _410
REMARK  180  A    between atoms: _410  and  _411
REMARK  181  A    between atoms: _410  and  _413
REMARK  182  A    between atoms: _413  and  _414
REMARK  183  A    between atoms: _414  and  _415
REMARK  184  A    between atoms: _420  and  _422
REMARK  185  A    between atoms: _422  and  _423
REMARK  186  A    between atoms: _422  and  _425
REMARK  187  A    between atoms: _425  and  _426
REMARK  188  A    between atoms: _431  and  _433
REMARK  189  A    between atoms: _433  and  _434
REMARK  190  A    between atoms: _433  and  _436
REMARK  191  A    between atoms: _436  and  _437
REMARK  192  A    between atoms: _440  and  _442
REMARK  193  A    between atoms: _442  and  _443
REMARK  194  A    between atoms: _442  and  _445
REMARK  195  A    between atoms: _445  and  _446
REMARK  196  A    between atoms: _449  and  _451
REMARK  197  A    between atoms: _451  and  _452
REMARK  198  A    between atoms: _451  and  _454
REMARK  199  A    between atoms: _454  and  _455
REMARK  200  A    between atoms: _458  and  _460
REMARK  201  A    between atoms: _460  and  _461
REMARK  202  A    between atoms: _460  and  _463
REMARK  203  A    between atoms: _463  and  _464
REMARK  204  A    between atoms: _464  and  _465
REMARK  205  A    between atoms: _465  and  _466
REMARK  206  A    between atoms: _466  and  _467
REMARK  207  A    between atoms: _471  and  _473
REMARK  208  A    between atoms: _473  and  _474
REMARK  209  A    between atoms: _473  and  _476
REMARK  210  A    between atoms: _476  and  _477
REMARK  211  A    between atoms: _480  and  _482
REMARK  212  A    between atoms: _482  and  _483
REMARK  213  A    between atoms: _486  and  _488
REMARK  214  A    between atoms: _488  and  _489
REMARK  215  A    between atoms: _488  and  _491
REMARK  216  A    between atoms: _491  and  _492
REMARK  217  A    between atoms: _495  and  _497
REMARK  218  A    between atoms: _497  and  _498
REMARK  219  A    between atoms: _497  and  _500
REMARK  220  A    between atoms: _500  and  _501
REMARK  221  A    between atoms: _507  and  _509
REMARK  222  A    between atoms: _509  and  _510
REMARK  223  A    between atoms: _509  and  _512
REMARK  224  A    between atoms: _512  and  _513
REMARK  225  A    between atoms: _516  and  _518
REMARK  226  A    between atoms: _518  and  _519
REMARK  227  A    between atoms: _518  and  _521
REMARK  228  A    between atoms: _521  and  _522
REMARK  229  A    between atoms: _522  and  _523
REMARK  230  A    between atoms: _523  and  _524
REMARK  231  A    between atoms: _533  and  _535
REMARK  232  A    between atoms: _535  and  _536
REMARK  233  A    between atoms: _535  and  _538
REMARK  234  A    between atoms: _538  and  _539
REMARK                            x       y       z     vdW  Elec       q    Type
REMARK                         _______ _______ _______ _____ _____    ______ ____
ROOT
ATOM      1  C   THR A   7      -9.932  20.578  14.046  0.00  0.00    +0.243 C 
ATOM      2  O   THR A   7     -10.807  19.736  13.830  0.00  0.00    -0.273 OA
ATOM      3  N   TYR A   8     -10.063  21.855  13.699  0.00  0.00    -0.297 N 
ATOM      4  H   TYR A   8      -9.282  22.518  13.881  0.00  0.00    +0.150 HD
ENDROOT
BRANCH   1   5
ATOM      5  CA  THR A   7      -8.619  20.180  14.723  0.00  0.00    +0.176 C 
BRANCH   5   7
ATOM      6  C   GLY A   6      -7.088  20.789  12.945  0.00  0.00    +0.243 C 
ATOM      7  N   THR A   7      -7.483  20.938  14.206  0.00  0.00    -0.295 N 
ATOM      8  H   THR A   7      -6.978  21.600  14.829  0.00  0.00    +0.150 HD
ATOM      9  O   GLY A   6      -7.657  20.030  12.156  0.00  0.00    -0.273 OA
BRANCH   6  10
ATOM     10  CA  GLY A   6      -5.897  21.604  12.480  0.00  0.00    +0.176 C 
BRANCH  10  13
ATOM     11  C   GLU A   5      -4.795  20.590  10.580  0.00  0.00    +0.241 C 
ATOM     12  O   GLU A   5      -3.951  20.050  11.297  0.00  0.00    -0.273 OA
ATOM     13  N   GLY A   6      -5.761  21.369  11.055  0.00  0.00    -0.295 N 
ATOM     14  H   GLY A   6      -6.429  21.817  10.396  0.00  0.00    +0.150 HD
BRANCH  11  15
ATOM     15  CA  GLU A   5      -4.781  20.386   9.069  0.00  0.00    +0.149 C 
BRANCH  15  17
ATOM     16  C   GLY A   4      -3.158  21.272   7.470  0.00  0.00    +0.243 C 
ATOM     17  N   GLU A   5      -3.428  20.523   8.537  0.00  0.00    -0.297 N 
ATOM     18  H   GLU A   5      -2.649  20.019   9.007  0.00  0.00    +0.150 HD
ATOM     19  O   GLY A   4      -4.019  21.890   6.843  0.00  0.00    -0.273 OA
BRANCH  16  20
ATOM     20  CA  GLY A   4      -1.705  21.324   7.038  0.00  0.00    +0.176 C 
BRANCH  20  23
ATOM     21  C   ILE A   3      -0.249  22.469   5.485  0.00  0.00    +0.241 C 
ATOM     22  O   ILE A   3       0.754  21.996   6.020  0.00  0.00    -0.273 OA
ATOM     23  N   GLY A   4      -1.483  22.208   5.905  0.00  0.00    -0.295 N 
ATOM     24  H   GLY A   4      -2.296  22.639   5.420  0.00  0.00    +0.150 HD
BRANCH  21  25
ATOM     25  CA  ILE A   3      -0.119  23.406   4.291  0.00  0.00    +0.149 C 
BRANCH  25  27
ATOM     26  C   LYS A   2      -1.013  22.348   2.288  0.00  0.00    +0.241 C 
ATOM     27  N   ILE A   3      -1.179  23.182   3.312  0.00  0.00    -0.297 N 
ATOM     28  H   ILE A   3      -2.083  23.685   3.417  0.00  0.00    +0.150 HD
ATOM     29  O   LYS A   2       0.035  21.731   2.095  0.00  0.00    -0.273 OA
BRANCH  26  30
ATOM     30  CA  LYS A   2      -2.186  22.197   1.322  0.00  0.00    +0.149 C 
BRANCH  30  33
ATOM     31  C   GLU A   1      -1.425  23.505  -0.572  0.00  0.00    +0.238 C 
ATOM     32  O   GLU A   1      -1.667  24.562   0.002  0.00  0.00    -0.274 OA
ATOM     33  N   LYS A   2      -1.653  22.316  -0.026  0.00  0.00    -0.297 N 
ATOM     34  H   LYS A   2      -1.447  21.455  -0.572  0.00  0.00    +0.150 HD
BRANCH  31  35
ATOM     35  CA  GLU A   1      -0.847  23.500  -1.978  0.00  0.00    +0.145 C 
BRANCH  35  36
ATOM     36  N   GLU A   1      -1.148  24.761  -2.642  0.00  0.00    -0.238 NA
ATOM     37  H   GLU A   1      -1.466  25.566  -2.065  0.00  0.00    +0.142 HD
ENDBRANCH  35  36
BRANCH  35  38
ATOM     38  CB  GLU A   1       0.666  23.279  -1.902  0.00  0.00    +0.038 C 
BRANCH  38  39
ATOM     39  CG  GLU A   1       1.456  24.482  -1.399  0.00  0.00    +0.116 C 
BRANCH  39  40
ATOM     40  CD  GLU A   1       2.932  24.173  -1.218  0.00  0.00    +0.365 C 
ATOM     41  OE2 GLU A   1       3.549  24.716  -0.276  0.00  0.00    -0.246 OA
ATOM     42  OE1 GLU A   1       3.480  23.398  -2.029  0.00  0.00    -0.246 OA
ENDBRANCH  39  40
ENDBRANCH  38  39
ENDBRANCH  35  38
ENDBRANCH  31  35
ENDBRANCH  30  33
BRANCH  30  43
ATOM     43  CB  LYS A   2      -2.850  20.832   1.498  0.00  0.00    +0.029 C 
BRANCH  43  44
ATOM     44  CG  LYS A   2      -3.547  20.630   2.822  0.00  0.00    +0.000 C 
BRANCH  44  45
ATOM     45  CD  LYS A   2      -4.304  19.317   2.809  0.00  0.00    -0.024 C 
BRANCH  45  46
ATOM     46  CE  LYS A   2      -5.020  19.073   4.114  0.00  0.00    -0.086 C 
BRANCH  46  47
ATOM     47  NZ  LYS A   2      -5.735  17.766   4.107  0.00  0.00    +0.380 N 
ATOM     48  HZ1 LYS A   2      -6.216  17.631   5.019  0.00  0.00    -0.089 HD
ATOM     49  HZ2 LYS A   2      -5.050  16.998   3.958  0.00  0.00    -0.089 HD
ATOM     50  HZ3 LYS A   2      -6.437  17.760   3.339  0.00  0.00    -0.089 HD
ENDBRANCH  46  47
ENDBRANCH  45  46
ENDBRANCH  44  45
ENDBRANCH  43  44
ENDBRANCH  30  43
ENDBRANCH  26  30
ENDBRANCH  25  27
BRANCH  25  51
ATOM     51  CB  ILE A   3      -0.126  24.864   4.808  0.00  0.00    +0.027 C 
ATOM     52  CG2 ILE A   3       0.907  25.030   5.916  0.00  0.00    +0.002 C 
BRANCH  51  53
ATOM     53  CG1 ILE A   3       0.179  25.826   3.664  0.00  0.00    +0.002 C 
ATOM     54  CD1 ILE A   3       0.106  27.292   4.061  0.00  0.00    +0.000 C 
ENDBRANCH  51  53
ENDBRANCH  25  51
ENDBRANCH  21  25
ENDBRANCH  20  23
ENDBRANCH  16  20
ENDBRANCH  15  17
BRANCH  15  55
ATOM     55  CB  GLU A   5      -5.354  18.994   8.781  0.00  0.00    +0.041 C 
BRANCH  55  56
ATOM     56  CG  GLU A   5      -5.422  18.587   7.322  0.00  0.00    +0.116 C 
BRANCH  56  57
ATOM     57  CD  GLU A   5      -6.267  17.336   7.117  0.00  0.00    +0.365 C 
ATOM     58  OE2 GLU A   5      -6.073  16.353   7.864  0.00  0.00    -0.246 OA
ATOM     59  OE1 GLU A   5      -7.125  17.335   6.209  0.00  0.00    -0.246 OA
ENDBRANCH  56  57
ENDBRANCH  55  56
ENDBRANCH  15  55
ENDBRANCH  11  15
ENDBRANCH  10  13
ENDBRANCH   6  10
ENDBRANCH   5   7
BRANCH   5  60
ATOM     60  CB  THR A   7      -8.771  20.363  16.254  0.00  0.00    +0.137 C 
ATOM     61  CG2 THR A   7      -9.977  19.579  16.768  0.00  0.00    +0.034 C 
BRANCH  60  62
ATOM     62  OG1 THR A   7      -7.593  19.881  16.914  0.00  0.00    -0.382 OA
ATOM     63  HG1 THR A   7      -7.692  19.999  17.892  0.00  0.00    +0.210 HD
ENDBRANCH  60  62
ENDBRANCH   5  60
ENDBRANCH   1   5
BRANCH   3  64
ATOM     64  CA  TYR A   8     -11.285  22.341  13.067  0.00  0.00    +0.153 C 
BRANCH  64  65
ATOM     65  C   TYR A   8     -11.082  23.053  11.735  0.00  0.00    +0.241 C 
ATOM     66  N   GLY A   9      -9.854  23.070  11.228  0.00  0.00    -0.295 N 
ATOM     67  H   GLY A   9      -9.068  22.608  11.728  0.00  0.00    +0.150 HD
ATOM     68  O   TYR A   8     -12.035  23.590  11.170  0.00  0.00    -0.273 OA
BRANCH  66  69
ATOM     69  CA  GLY A   9      -9.630  23.744   9.965  0.00  0.00    +0.176 C 
BRANCH  69  70
ATOM     70  C   GLY A   9      -8.464  23.245   9.137  0.00  0.00    +0.243 C 
ATOM     71  O   GLY A   9      -7.445  22.801   9.671  0.00  0.00    -0.273 OA
ATOM     72  N   VAL A  10      -8.623  23.316   7.820  0.00  0.00    -0.297 N 
ATOM     73  H   VAL A  10      -9.519  23.678   7.437  0.00  0.00    +0.150 HD
BRANCH  72  74
ATOM     74  CA  VAL A  10      -7.576  22.900   6.900  0.00  0.00    +0.149 C 
BRANCH  74  75
ATOM     75  C   VAL A  10      -6.918  24.180   6.388  0.00  0.00    +0.241 C 
ATOM     76  N   VAL A  11      -5.593  24.169   6.283  0.00  0.00    -0.297 N 
ATOM     77  H   VAL A  11      -5.072  23.302   6.525  0.00  0.00    +0.150 HD
ATOM     78  O   VAL A  10      -7.604  25.163   6.105  0.00  0.00    -0.273 OA
BRANCH  76  79
ATOM     79  CA  VAL A  11      -4.849  25.346   5.836  0.00  0.00    +0.149 C 
BRANCH  79  80
ATOM     80  C   VAL A  11      -4.202  25.150   4.466  0.00  0.00    +0.241 C 
ATOM     81  O   VAL A  11      -3.544  24.138   4.220  0.00  0.00    -0.273 OA
ATOM     82  N   TYR A  12      -4.378  26.126   3.582  0.00  0.00    -0.297 N 
ATOM     83  H   TYR A  12      -4.940  26.960   3.845  0.00  0.00    +0.150 HD
BRANCH  82  84
ATOM     84  CA  TYR A  12      -3.794  26.045   2.246  0.00  0.00    +0.153 C 
BRANCH  84  85
ATOM     85  C   TYR A  12      -2.989  27.283   1.891  0.00  0.00    +0.241 C 
ATOM     86  O   TYR A  12      -3.262  28.373   2.386  0.00  0.00    -0.273 OA
ATOM     87  N   LYS A  13      -1.995  27.102   1.030  0.00  0.00    -0.298 N 
ATOM     88  H   LYS A  13      -1.763  26.141   0.707  0.00  0.00    +0.150 HD
BRANCH  87  89
ATOM     89  CA  LYS A  13      -1.227  28.231   0.533  0.00  0.00    +0.137 C 
BRANCH  89  90
ATOM     90  C   LYS A  13      -2.039  28.509  -0.721  0.00  0.00    +0.227 C 
ATOM     91  O   LYS A  13      -2.356  27.578  -1.466  0.00  0.00    -0.286 OA
ENDBRANCH  89  90
BRANCH  89  92
ATOM     92  CB  LYS A  13       0.199  27.825   0.149  0.00  0.00    +0.028 C 
BRANCH  92  93
ATOM     93  CG  LYS A  13       1.036  28.994  -0.394  0.00  0.00    -0.000 C 
BRANCH  93  94
ATOM     94  CD  LYS A  13       2.458  28.564  -0.735  0.00  0.00    -0.024 C 
BRANCH  94  95
ATOM     95  CE  LYS A  13       3.303  29.758  -1.191  0.00  0.00    -0.086 C 
BRANCH  95  96
ATOM     96  NZ  LYS A  13       4.724  29.389  -1.427  0.00  0.00    +0.380 N 
ATOM     97  HZ1 LYS A  13       5.136  29.021  -0.546  0.00  0.00    -0.089 HD
ATOM     98  HZ2 LYS A  13       5.253  30.230  -1.733  0.00  0.00    -0.089 HD
ATOM     99  HZ3 LYS A  13       4.773  28.659  -2.166  0.00  0.00    -0.089 HD
ENDBRANCH  95  96
ENDBRANCH  94  95
ENDBRANCH  93  94
ENDBRANCH  92  93
ENDBRANCH  89  92
ENDBRANCH  87  89
ENDBRANCH  84  85
BRANCH  84 100
ATOM    100  CB  TYR A  12      -4.868  25.917   1.163  0.00  0.00    +0.055 C 
BRANCH 100 101
ATOM    101  CG  TYR A  12      -5.794  24.741   1.288  0.00  0.00    -0.020 A 
ATOM    102  CD2 TYR A  12      -6.925  24.808   2.096  0.00  0.00    -0.001 A 
ATOM    103  CE2 TYR A  12      -7.804  23.734   2.191  0.00  0.00    +0.036 A 
ATOM    104  CZ  TYR A  12      -7.549  22.574   1.475  0.00  0.00    +0.134 A 
ATOM    105  CE1 TYR A  12      -6.426  22.482   0.668  0.00  0.00    +0.036 A 
ATOM    106  CD1 TYR A  12      -5.555  23.565   0.577  0.00  0.00    -0.001 A 
BRANCH 104 107
ATOM    107  OH  TYR A  12      -8.425  21.515   1.562  0.00  0.00    -0.506 OA
ATOM    108  HH  TYR A  12      -9.165  21.750   2.177  0.00  0.00    +0.292 HD
ENDBRANCH 104 107
ENDBRANCH 100 101
ENDBRANCH  84 100
ENDBRANCH  82  84
ENDBRANCH  79  80
BRANCH  79 109
ATOM    109  CB  VAL A  11      -3.732  25.699   6.842  0.00  0.00    +0.027 C 
ATOM    110  CG2 VAL A  11      -4.260  25.586   8.266  0.00  0.00    +0.002 C 
ATOM    111  CG1 VAL A  11      -3.196  27.101   6.562  0.00  0.00    +0.002 C 
ENDBRANCH  79 109
ENDBRANCH  76  79
ENDBRANCH  74  75
BRANCH  74 112
ATOM    112  CB  VAL A  10      -8.160  22.092   5.722  0.00  0.00    +0.027 C 
ATOM    113  CG2 VAL A  10      -9.214  22.915   4.998  0.00  0.00    +0.002 C 
ATOM    114  CG1 VAL A  10      -7.048  21.673   4.781  0.00  0.00    +0.002 C 
ENDBRANCH  74 112
ENDBRANCH  72  74
ENDBRANCH  69  70
ENDBRANCH  66  69
ENDBRANCH  64  65
BRANCH  64 115
ATOM    115  CB  TYR A   8     -12.035  23.290  14.009  0.00  0.00    +0.055 C 
BRANCH 115 116
ATOM    116  CG  TYR A   8     -12.533  22.648  15.282  0.00  0.00    -0.020 A 
ATOM    117  CD2 TYR A   8     -11.718  22.560  16.412  0.00  0.00    -0.001 A 
ATOM    118  CE2 TYR A   8     -12.180  21.968  17.588  0.00  0.00    +0.036 A 
ATOM    119  CZ  TYR A   8     -13.468  21.457  17.636  0.00  0.00    +0.134 A 
ATOM    120  CE1 TYR A   8     -14.293  21.531  16.526  0.00  0.00    +0.036 A 
ATOM    121  CD1 TYR A   8     -13.824  22.124  15.359  0.00  0.00    -0.001 A 
BRANCH 119 122
ATOM    122  OH  TYR A   8     -13.940  20.879  18.793  0.00  0.00    -0.506 OA
ATOM    123  HH  TYR A   8     -13.233  20.905  19.486  0.00  0.00    +0.292 HD
ENDBRANCH 119 122
ENDBRANCH 115 116
ENDBRANCH  64 115
ENDBRANCH   3  64
TORSDOF 54
REMARK  Name = ../refined-set-2016/2fvd/2fvd_pocket.pdb
REMARK  234 active torsions:
REMARK  status: ('A' for Active; 'I' for Inactive)
REMARK    1  A    between atoms: _1  and  _3
REMARK    2  A    between atoms: _3  and  _4
REMARK    3  A    between atoms: _3  and  _6
REMARK    4  A    between atoms: _6  and  _7
REMARK    5  A    between atoms: _7  and  _8
REMARK    6  A    between atoms: _11  and  _13
REMARK    7  A    between atoms: _13  and  _14
REMARK    8  A    between atoms: _13  and  _16
REMARK    9  A    between atoms: _16  and  _17
REMARK   10  A    between atoms: _17  and  _18
REMARK   11  A    between atoms: _18  and  _19
REMARK   12  A    between atoms: _19  and  _20
REMARK   13  A    between atoms: _24  and  _26
REMARK   14  A    between atoms: _26  and  _27
REMARK   15  A    between atoms: _26  and  _29
REMARK   16  A    between atoms: _29  and  _30
REMARK   17  A    between atoms: _33  and  _35
REMARK   18  A    between atoms: _35  and  _36
REMARK   19  A    between atoms: _38  and  _40
REMARK   20  A    between atoms: _40  and  _41
REMARK   21  A    between atoms: _40  and  _43
REMARK   22  A    between atoms: _43  and  _44
REMARK   23  A    between atoms: _44  and  _45
REMARK   24  A    between atoms: _48  and  _50
REMARK   25  A    between atoms: _50  and  _51
REMARK   26  A    between atoms: _53  and  _55
REMARK   27  A    between atoms: _55  and  _56
REMARK   28  A    between atoms: _55  and  _58
REMARK   29  A    between atoms: _58  and  _59
REMARK   30  A    between atoms: _62  and  _64
REMARK   31  A    between atoms: _64  and  _65
REMARK   32  A    between atoms: _64  and  _67
REMARK   33  A    between atoms: _67  and  _68
REMARK   34  A    between atoms: _73  and  _74
REMARK   35  A    between atoms: _76  and  _78
REMARK   36  A    between atoms: _78  and  _79
REMARK   37  A    between atoms: _81  and  _83
REMARK   38  A    between atoms: _83  and  _84
REMARK   39  A    between atoms: _83  and  _86
REMARK   40  A    between atoms: _89  and  _91
REMARK   41  A    between atoms: _91  and  _92
REMARK   42  A    between atoms: _91  and  _94
REMARK   43  A    between atoms: _97  and  _99
REMARK   44  A    between atoms: _99  and  _100
REMARK   45  A    between atoms: _99  and  _102
REMARK   46  A    between atoms: _102  and  _103
REMARK   47  A    between atoms: _108  and  _109
REMARK   48  A    between atoms: _111  and  _113
REMARK   49  A    between atoms: _113  and  _114
REMARK   50  A    between atoms: _113  and  _116
REMARK   51  A    between atoms: _116  and  _117
REMARK   52  A    between atoms: _117  and  _118
REMARK   53  A    between atoms: _118  and  _119
REMARK   54  A    between atoms: _119  and  _120
REMARK   55  A    between atoms: _124  and  _126
REMARK   56  A    between atoms: _126  and  _127
REMARK   57  A    between atoms: _126  and  _129
REMARK   58  A    between atoms: _132  and  _134
REMARK   59  A    between atoms: _134  and  _135
REMARK   60  A    between atoms: _134  and  _137
REMARK   61  A    between atoms: _140  and  _142
REMARK   62  A    between atoms: _142  and  _143
REMARK   63  A    between atoms: _146  and  _148
REMARK   64  A    between atoms: _148  and  _149
REMARK   65  A    between atoms: _148  and  _151
REMARK   66  A    between atoms: _151  and  _152
REMARK   67  A    between atoms: _155  and  _157
REMARK   68  A    between atoms: _157  and  _158
REMARK   69  A    between atoms: _157  and  _160
REMARK   70  A    between atoms: _160  and  _161
REMARK   71  A    between atoms: _161  and  _162
REMARK   72  A    between atoms: _162  and  _163
REMARK   73  A    between atoms: _163  and  _164
REMARK   74  A    between atoms: _168  and  _170
REMARK   75  A    between atoms: _170  and  _171
REMARK   76  A    between atoms: _170  and  _173
REMARK   77  A    between atoms: _173  and  _174
REMARK   78  A    between atoms: _174  and  _175
REMARK   79  A    between atoms: _175  and  _176
REMARK   80  A    between atoms: _176  and  _177
REMARK   81  A    between atoms: _181  and  _183
REMARK   82  A    between atoms: _183  and  _184
REMARK   83  A    between atoms: _183  and  _186
REMARK   84  A    between atoms: _186  and  _187
REMARK   85  A    between atoms: _190  and  _192
REMARK   86  A    between atoms: _192  and  _193
REMARK   87  A    between atoms: _192  and  _195
REMARK   88  A    between atoms: _198  and  _200
REMARK   89  A    between atoms: _200  and  _201
REMARK   90  A    between atoms: _200  and  _203
REMARK   91  A    between atoms: _203  and  _204
REMARK   92  A    between atoms: _204  and  _205
REMARK   93  A    between atoms: _205  and  _206
REMARK   94  A    between atoms: _206  and  _207
REMARK   95  A    between atoms: _211  and  _213
REMARK   96  A    between atoms: _213  and  _214
REMARK   97  A    between atoms: _213  and  _216
REMARK   98  A    between atoms: _216  and  _217
REMARK   99  A    between atoms: _220  and  _222
REMARK  100  A    between atoms: _222  and  _223
REMARK  101  A    between atoms: _222  and  _225
REMARK  102  A    between atoms: _225  and  _226
REMARK  103  A    between atoms: _229  and  _231
REMARK  104  A    between atoms: _231  and  _232
REMARK  105  A    between atoms: _231  and  _234
REMARK  106  A    between atoms: _234  and  _235
REMARK  107  A    between atoms: _238  and  _240
REMARK  108  A    between atoms: _240  and  _241
REMARK  109  A    between atoms: _240  and  _243
REMARK  110  A    between atoms: _246  and  _248
REMARK  111  A    between atoms: _248  and  _249
REMARK  112  A    between atoms: _248  and  _251
REMARK  113  A    between atoms: _251  and  _252
REMARK  114  A    between atoms: _258  and  _260
REMARK  115  A    between atoms: _260  and  _261
REMARK  116  A    between atoms: _260  and  _263
REMARK  117  A    between atoms: _263  and  _264
REMARK  118  A    between atoms: _264  and  _265
REMARK  119  A    between atoms: _268  and  _270
REMARK  120  A    between atoms: _270  and  _271
REMARK  121  A    between atoms: _270  and  _273
REMARK  122  A    between atoms: _273  and  _274
REMARK  123  A    between atoms: _280  and  _282
REMARK  124  A    between atoms: _282  and  _283
REMARK  125  A    between atoms: _282  and  _285
REMARK  126  A    between atoms: _285  and  _286
REMARK  127  A    between atoms: _289  and  _291
REMARK  128  A    between atoms: _291  and  _292
REMARK  129  A    between atoms: _291  and  _294
REMARK  130  A    between atoms: _294  and  _295
REMARK  131  A    between atoms: _300  and  _302
REMARK  132  A    between atoms: _302  and  _303
REMARK  133  A    between atoms: _302  and  _305
REMARK  134  A    between atoms: _305  and  _306
REMARK  135  A    between atoms: _306  and  _307
REMARK  136  A    between atoms: _312  and  _314
REMARK  137  A    between atoms: _314  and  _315
REMARK  138  A    between atoms: _314  and  _317
REMARK  139  A    between atoms: _317  and  _318
REMARK  140  A    between atoms: _321  and  _323
REMARK  141  A    between atoms: _323  and  _324
REMARK  142  A    between atoms: _323  and  _326
REMARK  143  A    between atoms: _326  and  _327
REMARK  144  A    between atoms: _330  and  _332
REMARK  145  A    between atoms: _332  and  _333
REMARK  146  A    between atoms: _332  and  _335
REMARK  147  A    between atoms: _335  and  _336
REMARK  148  A    between atoms: _336  and  _337
REMARK  149  A    between atoms: _337  and  _338
REMARK  150  A    between atoms: _338  and  _339
REMARK  151  A    between atoms: _343  and  _345
REMARK  152  A    between atoms: _345  and  _346
REMARK  153  A    between atoms: _345  and  _348
REMARK  154  A    between atoms: _348  and  _349
REMARK  155  A    between atoms: _349  and  _350
REMARK  156  A    between atoms: _350  and  _351
REMARK  157  A    between atoms: _351  and  _352
REMARK  158  A    between atoms: _356  and  _358
REMARK  159  A    between atoms: _358  and  _359
REMARK  160  A    between atoms: _358  and  _361
REMARK  161  A    between atoms: _361  and  _362
REMARK  162  A    between atoms: _368  and  _370
REMARK  163  A    between atoms: _370  and  _371
REMARK  164  A    between atoms: _370  and  _373
REMARK  165  A    between atoms: _373  and  _374
REMARK  166  A    between atoms: _374  and  _375
REMARK  167  A    between atoms: _377  and  _379
REMARK  168  A    between atoms: _379  and  _380
REMARK  169  A    between atoms: _379  and  _382
REMARK  170  A    between atoms: _382  and  _383
REMARK  171  A    between atoms: _388  and  _390
REMARK  172  A    between atoms: _390  and  _391
REMARK  173  A    between atoms: _390  and  _393
REMARK  174  A    between atoms: _393  and  _394
REMARK  175  A    between atoms: _394  and  _395
REMARK  176  A    between atoms: _395  and  _396
REMARK  177  A    between atoms: _396  and  _397
REMARK  178  A    between atoms: _402  and  _403
REMARK  179  A    between atoms: _408  and  _410
REMARK  180  A    between atoms: _410  and  _411
REMARK  181  A    between atoms: _410  and  _413
REMARK  182  A    between atoms: _413  and  _414
REMARK  183  A    between atoms: _414  and  _415
REMARK  184  A    between atoms: _420  and  _422
REMARK  185  A    between atoms: _422  and  _423
REMARK  186  A    between atoms: _422  and  _425
REMARK  187  A    between atoms: _425  and  _426
REMARK  188  A    between atoms: _431  and  _433
REMARK  189  A    between atoms: _433  and  _434
REMARK  190  A    between atoms: _433  and  _436
REMARK  191  A    between atoms: _436  and  _437
REMARK  192  A    between atoms: _440  and  _442
REMARK  193  A    between atoms: _442  and  _443
REMARK  194  A    between atoms: _442  and  _445
REMARK  195  A    between atoms: _445  and  _446
REMARK  196  A    between atoms: _449  and  _451
REMARK  197  A    between atoms: _451  and  _452
REMARK  198  A    between atoms: _451  and  _454
REMARK  199  A    between atoms: _454  and  _455
REMARK  200  A    between atoms: _458  and  _460
REMARK  201  A    between atoms: _460  and  _461
REMARK  202  A    between atoms: _460  and  _463
REMARK  203  A    between atoms: _463  and  _464
REMARK  204  A    between atoms: _464  and  _465
REMARK  205  A    between atoms: _465  and  _466
REMARK  206  A    between atoms: _466  and  _467
REMARK  207  A    between atoms: _471  and  _473
REMARK  208  A    between atoms: _473  and  _474
REMARK  209  A    between atoms: _473  and  _476
REMARK  210  A    between atoms: _476  and  _477
REMARK  211  A    between atoms: _480  and  _482
REMARK  212  A    between atoms: _482  and  _483
REMARK  213  A    between atoms: _486  and  _488
REMARK  214  A    between atoms: _488  and  _489
REMARK  215  A    between atoms: _488  and  _491
REMARK  216  A    between atoms: _491  and  _492
REMARK  217  A    between atoms: _495  and  _497
REMARK  218  A    between atoms: _497  and  _498
REMARK  219  A    between atoms: _497  and  _500
REMARK  220  A    between atoms: _500  and  _501
REMARK  221  A    between atoms: _507  and  _509
REMARK  222  A    between atoms: _509  and  _510
REMARK  223  A    between atoms: _509  and  _512
REMARK  224  A    between atoms: _512  and  _513
REMARK  225  A    between atoms: _516  and  _518
REMARK  226  A    between atoms: _518  and  _519
REMARK  227  A    between atoms: _518  and  _521
REMARK  228  A    between atoms: _521  and  _522
REMARK  229  A    between atoms: _522  and  _523
REMARK  230  A    between atoms: _523  and  _524
REMARK  231  A    between atoms: _533  and  _535
REMARK  232  A    between atoms: _535  and  _536
REMARK  233  A    between atoms: _535  and  _538
REMARK  234  A    between atoms: _538  and  _539
REMARK                            x       y       z     vdW  Elec       q    Type
REMARK                         _______ _______ _______ _____ _____    ______ ____
ROOT
ATOM      1  C   LEU A   4      -6.610  29.114   4.863  0.00  0.00    +0.241 C 
ATOM      2  N   LYS A   5      -7.467  29.508   5.798  0.00  0.00    -0.297 N 
ATOM      3  H   LYS A   5      -7.803  30.492   5.804  0.00  0.00    +0.150 HD
ATOM      4  O   LEU A   4      -6.136  27.978   4.824  0.00  0.00    -0.273 OA
ENDROOT
BRANCH   1   5
ATOM      5  CA  LEU A   4      -6.220  30.151   3.824  0.00  0.00    +0.149 C 
BRANCH   5   8
ATOM      6  C   ALA A   3      -4.072  31.274   3.977  0.00  0.00    +0.241 C 
ATOM      7  O   ALA A   3      -4.589  32.291   4.442  0.00  0.00    -0.273 OA
ATOM      8  N   LEU A   4      -4.772  30.196   3.646  0.00  0.00    -0.297 N 
ATOM      9  H   LEU A   4      -4.280  29.368   3.253  0.00  0.00    +0.150 HD
BRANCH   6  10
ATOM     10  CA  ALA A   3      -2.573  31.215   3.743  0.00  0.00    +0.149 C 
ATOM     11  CB  ALA A   3      -1.842  31.139   5.070  0.00  0.00    +0.031 C 
BRANCH  10  13
ATOM     12  C   VAL A   2      -1.895  32.515   1.802  0.00  0.00    +0.241 C 
ATOM     13  N   ALA A   3      -2.293  32.470   3.068  0.00  0.00    -0.297 N 
ATOM     14  H   ALA A   3      -2.408  33.361   3.592  0.00  0.00    +0.150 HD
ATOM     15  O   VAL A   2      -1.675  31.512   1.123  0.00  0.00    -0.273 OA
BRANCH  12  16
ATOM     16  CA  VAL A   2      -1.720  33.917   1.233  0.00  0.00    +0.148 C 
BRANCH  16  19
ATOM     17  C   VAL A   1      -0.255  34.789  -0.491  0.00  0.00    +0.238 C 
ATOM     18  O   VAL A   1       0.274  35.579   0.290  0.00  0.00    -0.274 OA
ATOM     19  N   VAL A   2      -1.203  33.933  -0.125  0.00  0.00    -0.297 N 
ATOM     20  H   VAL A   2      -1.582  33.262  -0.823  0.00  0.00    +0.150 HD
BRANCH  17  21
ATOM     21  CA  VAL A   1       0.156  34.759  -1.956  0.00  0.00    +0.145 C 
BRANCH  21  22
ATOM     22  CB  VAL A   1       1.595  34.218  -2.098  0.00  0.00    +0.025 C 
ATOM     23  CG2 VAL A   1       1.723  32.880  -1.394  0.00  0.00    +0.002 C 
ATOM     24  CG1 VAL A   1       1.938  34.055  -3.571  0.00  0.00    +0.002 C 
ENDBRANCH  21  22
BRANCH  21  25
ATOM     25  N   VAL A   1       0.055  36.149  -2.395  0.00  0.00    -0.238 NA
ATOM     26  H   VAL A   1       0.833  36.805  -2.181  0.00  0.00    +0.142 HD
ENDBRANCH  21  25
ENDBRANCH  17  21
ENDBRANCH  16  19
BRANCH  16  27
ATOM     27  CB  VAL A   2      -3.108  34.597   1.282  0.00  0.00    +0.027 C 
ATOM     28  CG2 VAL A   2      -3.032  36.010   0.714  0.00  0.00    +0.002 C 
ATOM     29  CG1 VAL A   2      -4.102  33.774   0.481  0.00  0.00    +0.002 C 
ENDBRANCH  16  27
ENDBRANCH  12  16
ENDBRANCH  10  13
ENDBRANCH   6  10
ENDBRANCH   5   8
BRANCH   5  30
ATOM     30  CB  LEU A   4      -6.916  29.792   2.509  0.00  0.00    +0.029 C 
BRANCH  30  31
ATOM     31  CG  LEU A   4      -6.908  30.748   1.317  0.00  0.00    +0.002 C 
ATOM     32  CD2 LEU A   4      -7.651  32.038   1.664  0.00  0.00    +0.000 C 
ATOM     33  CD1 LEU A   4      -7.567  30.053   0.134  0.00  0.00    +0.000 C 
ENDBRANCH  30  31
ENDBRANCH   5  30
ENDBRANCH   1   5
BRANCH   2  34
ATOM     34  CA  LYS A   5      -7.943  28.581   6.814  0.00  0.00    +0.149 C 
BRANCH  34  35
ATOM     35  C   LYS A   5      -9.401  28.290   6.476  0.00  0.00    +0.241 C 
ATOM     36  O   LYS A   5     -10.240  29.191   6.507  0.00  0.00    -0.273 OA
ATOM     37  N   LYS A   6      -9.693  27.041   6.133  0.00  0.00    -0.297 N 
ATOM     38  H   LYS A   6      -8.935  26.329   6.109  0.00  0.00    +0.150 HD
BRANCH  37  39
ATOM     39  CA  LYS A   6     -11.056  26.645   5.789  0.00  0.00    +0.149 C 
BRANCH  39  40
ATOM     40  C   LYS A   6     -11.708  25.924   6.958  0.00  0.00    +0.241 C 
ATOM     41  N   ILE A   7     -12.820  26.466   7.438  0.00  0.00    -0.298 N 
ATOM     42  H   ILE A   7     -13.182  27.344   7.013  0.00  0.00    +0.150 HD
ATOM     43  O   LYS A   6     -11.217  24.890   7.408  0.00  0.00    -0.273 OA
BRANCH  41  44
ATOM     44  CA  ILE A   7     -13.545  25.861   8.545  0.00  0.00    +0.137 C 
BRANCH  44  45
ATOM     45  C   ILE A   7     -14.956  25.494   8.101  0.00  0.00    +0.227 C 
ATOM     46  O   ILE A   7     -15.671  26.328   7.545  0.00  0.00    -0.286 OA
ENDBRANCH  44  45
BRANCH  44  47
ATOM     47  CB  ILE A   7     -13.650  26.828   9.742  0.00  0.00    +0.026 C 
ATOM     48  CG2 ILE A   7     -14.398  26.156  10.883  0.00  0.00    +0.002 C 
BRANCH  47  49
ATOM     49  CG1 ILE A   7     -12.253  27.245  10.198  0.00  0.00    +0.002 C 
ATOM     50  CD1 ILE A   7     -12.250  28.325  11.258  0.00  0.00    +0.000 C 
ENDBRANCH  47  49
ENDBRANCH  44  47
ENDBRANCH  41  44
ENDBRANCH  39  40
BRANCH  39  51
ATOM     51  CB  LYS A   6     -11.069  25.701   4.582  0.00  0.00    +0.029 C 
BRANCH  51  52
ATOM     52  CG  LYS A   6     -10.498  26.264   3.300  0.00  0.00    +0.000 C 
BRANCH  52  53
ATOM     53  CD  LYS A   6     -10.762  25.304   2.145  0.00  0.00    -0.024 C 
BRANCH  53  54
ATOM     54  CE  LYS A   6     -10.212  25.837   0.833  0.00  0.00    -0.086 C 
BRANCH  54  55
ATOM     55  NZ  LYS A   6     -10.567  24.950  -0.311  0.00  0.00    +0.380 N 
ATOM     56  HZ1 LYS A   6     -10.171  24.002  -0.149  0.00  0.00    -0.089 HD
ATOM     57  HZ2 LYS A   6     -11.602  24.886  -0.390  0.00  0.00    -0.089 HD
ATOM     58  HZ3 LYS A   6     -10.175  25.345  -1.189  0.00  0.00    -0.089 HD
ENDBRANCH  54  55
ENDBRANCH  53  54
ENDBRANCH  52  53
ENDBRANCH  51  52
ENDBRANCH  39  51
ENDBRANCH  37  39
ENDBRANCH  34  35
BRANCH  34  59
ATOM     59  CB  LYS A   5      -7.847  29.194   8.216  0.00  0.00    +0.029 C 
BRANCH  59  60
ATOM     60  CG  LYS A   5      -8.320  28.253   9.321  0.00  0.00    +0.000 C 
BRANCH  60  61
ATOM     61  CD  LYS A   5      -8.116  28.846  10.705  0.00  0.00    -0.024 C 
BRANCH  61  62
ATOM     62  CE  LYS A   5      -8.411  27.815  11.787  0.00  0.00    -0.086 C 
BRANCH  62  63
ATOM     63  NZ  LYS A   5      -8.177  28.343  13.160  0.00  0.00    +0.380 N 
ATOM     64  HZ1 LYS A   5      -8.393  27.602  13.857  0.00  0.00    -0.089 HD
ATOM     65  HZ2 LYS A   5      -8.794  29.164  13.324  0.00  0.00    -0.089 HD
ATOM     66  HZ3 LYS A   5      -7.182  28.630  13.255  0.00  0.00    -0.089 HD
ENDBRANCH  62  63
ENDBRANCH  61  62
ENDBRANCH  60  61
ENDBRANCH  59  60
ENDBRANCH  34  59
ENDBRANCH   2  34
TORSDOF 30
REMARK  Name = ../refined-set-2016/2fvd/2fvd_pocket.pdb
REMARK  234 active torsions:
REMARK  status: ('A' for Active; 'I' for Inactive)
REMARK    1  A    between atoms: _1  and  _3
REMARK    2  A    between atoms: _3  and  _4
REMARK    3  A    between atoms: _3  and  _6
REMARK    4  A    between atoms: _6  and  _7
REMARK    5  A    between atoms: _7  and  _8
REMARK    6  A    between atoms: _11  and  _13
REMARK    7  A    between atoms: _13  and  _14
REMARK    8  A    between atoms: _13  and  _16
REMARK    9  A    between atoms: _16  and  _17
REMARK   10  A    between atoms: _17  and  _18
REMARK   11  A    between atoms: _18  and  _19
REMARK   12  A    between atoms: _19  and  _20
REMARK   13  A    between atoms: _24  and  _26
REMARK   14  A    between atoms: _26  and  _27
REMARK   15  A    between atoms: _26  and  _29
REMARK   16  A    between atoms: _29  and  _30
REMARK   17  A    between atoms: _33  and  _35
REMARK   18  A    between atoms: _35  and  _36
REMARK   19  A    between atoms: _38  and  _40
REMARK   20  A    between atoms: _40  and  _41
REMARK   21  A    between atoms: _40  and  _43
REMARK   22  A    between atoms: _43  and  _44
REMARK   23  A    between atoms: _44  and  _45
REMARK   24  A    between atoms: _48  and  _50
REMARK   25  A    between atoms: _50  and  _51
REMARK   26  A    between atoms: _53  and  _55
REMARK   27  A    between atoms: _55  and  _56
REMARK   28  A    between atoms: _55  and  _58
REMARK   29  A    between atoms: _58  and  _59
REMARK   30  A    between atoms: _62  and  _64
REMARK   31  A    between atoms: _64  and  _65
REMARK   32  A    between atoms: _64  and  _67
REMARK   33  A    between atoms: _67  and  _68
REMARK   34  A    between atoms: _73  and  _74
REMARK   35  A    between atoms: _76  and  _78
REMARK   36  A    between atoms: _78  and  _79
REMARK   37  A    between atoms: _81  and  _83
REMARK   38  A    between atoms: _83  and  _84
REMARK   39  A    between atoms: _83  and  _86
REMARK   40  A    between atoms: _89  and  _91
REMARK   41  A    between atoms: _91  and  _92
REMARK   42  A    between atoms: _91  and  _94
REMARK   43  A    between atoms: _97  and  _99
REMARK   44  A    between atoms: _99  and  _100
REMARK   45  A    between atoms: _99  and  _102
REMARK   46  A    between atoms: _102  and  _103
REMARK   47  A    between atoms: _108  and  _109
REMARK   48  A    between atoms: _111  and  _113
REMARK   49  A    between atoms: _113  and  _114
REMARK   50  A    between atoms: _113  and  _116
REMARK   51  A    between atoms: _116  and  _117
REMARK   52  A    between atoms: _117  and  _118
REMARK   53  A    between atoms: _118  and  _119
REMARK   54  A    between atoms: _119  and  _120
REMARK   55  A    between atoms: _124  and  _126
REMARK   56  A    between atoms: _126  and  _127
REMARK   57  A    between atoms: _126  and  _129
REMARK   58  A    between atoms: _132  and  _134
REMARK   59  A    between atoms: _134  and  _135
REMARK   60  A    between atoms: _134  and  _137
REMARK   61  A    between atoms: _140  and  _142
REMARK   62  A    between atoms: _142  and  _143
REMARK   63  A    between atoms: _146  and  _148
REMARK   64  A    between atoms: _148  and  _149
REMARK   65  A    between atoms: _148  and  _151
REMARK   66  A    between atoms: _151  and  _152
REMARK   67  A    between atoms: _155  and  _157
REMARK   68  A    between atoms: _157  and  _158
REMARK   69  A    between atoms: _157  and  _160
REMARK   70  A    between atoms: _160  and  _161
REMARK   71  A    between atoms: _161  and  _162
REMARK   72  A    between atoms: _162  and  _163
REMARK   73  A    between atoms: _163  and  _164
REMARK   74  A    between atoms: _168  and  _170
REMARK   75  A    between atoms: _170  and  _171
REMARK   76  A    between atoms: _170  and  _173
REMARK   77  A    between atoms: _173  and  _174
REMARK   78  A    between atoms: _174  and  _175
REMARK   79  A    between atoms: _175  and  _176
REMARK   80  A    between atoms: _176  and  _177
REMARK   81  A    between atoms: _181  and  _183
REMARK   82  A    between atoms: _183  and  _184
REMARK   83  A    between atoms: _183  and  _186
REMARK   84  A    between atoms: _186  and  _187
REMARK   85  A    between atoms: _190  and  _192
REMARK   86  A    between atoms: _192  and  _193
REMARK   87  A    between atoms: _192  and  _195
REMARK   88  A    between atoms: _198  and  _200
REMARK   89  A    between atoms: _200  and  _201
REMARK   90  A    between atoms: _200  and  _203
REMARK   91  A    between atoms: _203  and  _204
REMARK   92  A    between atoms: _204  and  _205
REMARK   93  A    between atoms: _205  and  _206
REMARK   94  A    between atoms: _206  and  _207
REMARK   95  A    between atoms: _211  and  _213
REMARK   96  A    between atoms: _213  and  _214
REMARK   97  A    between atoms: _213  and  _216
REMARK   98  A    between atoms: _216  and  _217
REMARK   99  A    between atoms: _220  and  _222
REMARK  100  A    between atoms: _222  and  _223
REMARK  101  A    between atoms: _222  and  _225
REMARK  102  A    between atoms: _225  and  _226
REMARK  103  A    between atoms: _229  and  _231
REMARK  104  A    between atoms: _231  and  _232
REMARK  105  A    between atoms: _231  and  _234
REMARK  106  A    between atoms: _234  and  _235
REMARK  107  A    between atoms: _238  and  _240
REMARK  108  A    between atoms: _240  and  _241
REMARK  109  A    between atoms: _240  and  _243
REMARK  110  A    between atoms: _246  and  _248
REMARK  111  A    between atoms: _248  and  _249
REMARK  112  A    between atoms: _248  and  _251
REMARK  113  A    between atoms: _251  and  _252
REMARK  114  A    between atoms: _258  and  _260
REMARK  115  A    between atoms: _260  and  _261
REMARK  116  A    between atoms: _260  and  _263
REMARK  117  A    between atoms: _263  and  _264
REMARK  118  A    between atoms: _264  and  _265
REMARK  119  A    between atoms: _268  and  _270
REMARK  120  A    between atoms: _270  and  _271
REMARK  121  A    between atoms: _270  and  _273
REMARK  122  A    between atoms: _273  and  _274
REMARK  123  A    between atoms: _280  and  _282
REMARK  124  A    between atoms: _282  and  _283
REMARK  125  A    between atoms: _282  and  _285
REMARK  126  A    between atoms: _285  and  _286
REMARK  127  A    between atoms: _289  and  _291
REMARK  128  A    between atoms: _291  and  _292
REMARK  129  A    between atoms: _291  and  _294
REMARK  130  A    between atoms: _294  and  _295
REMARK  131  A    between atoms: _300  and  _302
REMARK  132  A    between atoms: _302  and  _303
REMARK  133  A    between atoms: _302  and  _305
REMARK  134  A    between atoms: _305  and  _306
REMARK  135  A    between atoms: _306  and  _307
REMARK  136  A    between atoms: _312  and  _314
REMARK  137  A    between atoms: _314  and  _315
REMARK  138  A    between atoms: _314  and  _317
REMARK  139  A    between atoms: _317  and  _318
REMARK  140  A    between atoms: _321  and  _323
REMARK  141  A    between atoms: _323  and  _324
REMARK  142  A    between atoms: _323  and  _326
REMARK  143  A    between atoms: _326  and  _327
REMARK  144  A    between atoms: _330  and  _332
REMARK  145  A    between atoms: _332  and  _333
REMARK  146  A    between atoms: _332  and  _335
REMARK  147  A    between atoms: _335  and  _336
REMARK  148  A    between atoms: _336  and  _337
REMARK  149  A    between atoms: _337  and  _338
REMARK  150  A    between atoms: _338  and  _339
REMARK  151  A    between atoms: _343  and  _345
REMARK  152  A    between atoms: _345  and  _346
REMARK  153  A    between atoms: _345  and  _348
REMARK  154  A    between atoms: _348  and  _349
REMARK  155  A    between atoms: _349  and  _350
REMARK  156  A    between atoms: _350  and  _351
REMARK  157  A    between atoms: _351  and  _352
REMARK  158  A    between atoms: _356  and  _358
REMARK  159  A    between atoms: _358  and  _359
REMARK  160  A    between atoms: _358  and  _361
REMARK  161  A    between atoms: _361  and  _362
REMARK  162  A    between atoms: _368  and  _370
REMARK  163  A    between atoms: _370  and  _371
REMARK  164  A    between atoms: _370  and  _373
REMARK  165  A    between atoms: _373  and  _374
REMARK  166  A    between atoms: _374  and  _375
REMARK  167  A    between atoms: _377  and  _379
REMARK  168  A    between atoms: _379  and  _380
REMARK  169  A    between atoms: _379  and  _382
REMARK  170  A    between atoms: _382  and  _383
REMARK  171  A    between atoms: _388  and  _390
REMARK  172  A    between atoms: _390  and  _391
REMARK  173  A    between atoms: _390  and  _393
REMARK  174  A    between atoms: _393  and  _394
REMARK  175  A    between atoms: _394  and  _395
REMARK  176  A    between atoms: _395  and  _396
REMARK  177  A    between atoms: _396  and  _397
REMARK  178  A    between atoms: _402  and  _403
REMARK  179  A    between atoms: _408  and  _410
REMARK  180  A    between atoms: _410  and  _411
REMARK  181  A    between atoms: _410  and  _413
REMARK  182  A    between atoms: _413  and  _414
REMARK  183  A    between atoms: _414  and  _415
REMARK  184  A    between atoms: _420  and  _422
REMARK  185  A    between atoms: _422  and  _423
REMARK  186  A    between atoms: _422  and  _425
REMARK  187  A    between atoms: _425  and  _426
REMARK  188  A    between atoms: _431  and  _433
REMARK  189  A    between atoms: _433  and  _434
REMARK  190  A    between atoms: _433  and  _436
REMARK  191  A    between atoms: _436  and  _437
REMARK  192  A    between atoms: _440  and  _442
REMARK  193  A    between atoms: _442  and  _443
REMARK  194  A    between atoms: _442  and  _445
REMARK  195  A    between atoms: _445  and  _446
REMARK  196  A    between atoms: _449  and  _451
REMARK  197  A    between atoms: _451  and  _452
REMARK  198  A    between atoms: _451  and  _454
REMARK  199  A    between atoms: _454  and  _455
REMARK  200  A    between atoms: _458  and  _460
REMARK  201  A    between atoms: _460  and  _461
REMARK  202  A    between atoms: _460  and  _463
REMARK  203  A    between atoms: _463  and  _464
REMARK  204  A    between atoms: _464  and  _465
REMARK  205  A    between atoms: _465  and  _466
REMARK  206  A    between atoms: _466  and  _467
REMARK  207  A    between atoms: _471  and  _473
REMARK  208  A    between atoms: _473  and  _474
REMARK  209  A    between atoms: _473  and  _476
REMARK  210  A    between atoms: _476  and  _477
REMARK  211  A    between atoms: _480  and  _482
REMARK  212  A    between atoms: _482  and  _483
REMARK  213  A    between atoms: _486  and  _488
REMARK  214  A    between atoms: _488  and  _489
REMARK  215  A    between atoms: _488  and  _491
REMARK  216  A    between atoms: _491  and  _492
REMARK  217  A    between atoms: _495  and  _497
REMARK  218  A    between atoms: _497  and  _498
REMARK  219  A    between atoms: _497  and  _500
REMARK  220  A    between atoms: _500  and  _501
REMARK  221  A    between atoms: _507  and  _509
REMARK  222  A    between atoms: _509  and  _510
REMARK  223  A    between atoms: _509  and  _512
REMARK  224  A    between atoms: _512  and  _513
REMARK  225  A    between atoms: _516  and  _518
REMARK  226  A    between atoms: _518  and  _519
REMARK  227  A    between atoms: _518  and  _521
REMARK  228  A    between atoms: _521  and  _522
REMARK  229  A    between atoms: _522  and  _523
REMARK  230  A    between atoms: _523  and  _524
REMARK  231  A    between atoms: _533  and  _535
REMARK  232  A    between atoms: _535  and  _536
REMARK  233  A    between atoms: _535  and  _538
REMARK  234  A    between atoms: _538  and  _539
REMARK                            x       y       z     vdW  Elec       q    Type
REMARK                         _______ _______ _______ _____ _____    ______ ____
ROOT
ATOM      1  C   LYS A   2      -3.272  39.012   8.906  0.00  0.00    +0.241 C 
ATOM      2  N   LEU A   3      -4.467  39.258   9.435  0.00  0.00    -0.297 N 
ATOM      3  H   LEU A   3      -4.537  39.937  10.220  0.00  0.00    +0.150 HD
ATOM      4  O   LYS A   2      -3.071  38.170   8.033  0.00  0.00    -0.273 OA
ENDROOT
BRANCH   1   5
ATOM      5  CA  LYS A   2      -2.127  39.827   9.478  0.00  0.00    +0.149 C 
BRANCH   5   8
ATOM      6  C   VAL A   1      -1.077  38.236  10.952  0.00  0.00    +0.238 C 
ATOM      7  O   VAL A   1      -2.114  38.123  11.604  0.00  0.00    -0.274 OA
ATOM      8  N   LYS A   2      -0.985  39.030   9.897  0.00  0.00    -0.297 N 
ATOM      9  H   LYS A   2      -0.093  39.084   9.366  0.00  0.00    +0.150 HD
BRANCH   6  10
ATOM     10  CA  VAL A   1       0.186  37.473  11.340  0.00  0.00    +0.145 C 
BRANCH  10  11
ATOM     11  CB  VAL A   1      -0.011  35.955  11.096  0.00  0.00    +0.025 C 
ATOM     12  CG2 VAL A   1      -1.181  35.431  11.901  0.00  0.00    +0.002 C 
ATOM     13  CG1 VAL A   1      -0.250  35.695   9.613  0.00  0.00    +0.002 C 
ENDBRANCH  10  11
BRANCH  10  14
ATOM     14  N   VAL A   1       0.458  37.776  12.742  0.00  0.00    -0.238 NA
ATOM     15  H   VAL A   1       0.522  37.005  13.437  0.00  0.00    +0.142 HD
ENDBRANCH  10  14
ENDBRANCH   6  10
ENDBRANCH   5   8
BRANCH   5  16
ATOM     16  CB  LYS A   2      -1.690  40.871   8.448  0.00  0.00    +0.029 C 
BRANCH  16  17
ATOM     17  CG  LYS A   2      -2.811  41.778   7.948  0.00  0.00    +0.000 C 
BRANCH  17  18
ATOM     18  CD  LYS A   2      -2.274  42.790   6.940  0.00  0.00    -0.024 C 
BRANCH  18  19
ATOM     19  CE  LYS A   2      -3.354  43.764   6.487  0.00  0.00    -0.086 C 
BRANCH  19  20
ATOM     20  NZ  LYS A   2      -3.927  44.520   7.642  0.00  0.00    +0.380 N 
ATOM     21  HZ1 LYS A   2      -4.348  43.851   8.318  0.00  0.00    -0.089 HD
ATOM     22  HZ2 LYS A   2      -3.171  45.059   8.111  0.00  0.00    -0.089 HD
ATOM     23  HZ3 LYS A   2      -4.659  45.174   7.298  0.00  0.00    -0.089 HD
ENDBRANCH  19  20
ENDBRANCH  18  19
ENDBRANCH  17  18
ENDBRANCH  16  17
ENDBRANCH   5  16
ENDBRANCH   1   5
BRANCH   2  24
ATOM     24  CA  LEU A   3      -5.681  38.613   8.957  0.00  0.00    +0.149 C 
BRANCH  24  25
ATOM     25  C   LEU A   3      -6.157  39.571   7.870  0.00  0.00    +0.241 C 
ATOM     26  O   LEU A   3      -6.655  40.665   8.159  0.00  0.00    -0.273 OA
ATOM     27  N   LEU A   4      -5.961  39.164   6.623  0.00  0.00    -0.298 N 
ATOM     28  H   LEU A   4      -5.533  38.229   6.466  0.00  0.00    +0.150 HD
BRANCH  27  29
ATOM     29  CA  LEU A   4      -6.319  39.970   5.464  0.00  0.00    +0.137 C 
BRANCH  29  30
ATOM     30  C   LEU A   4      -7.814  40.053   5.208  0.00  0.00    +0.227 C 
ATOM     31  O   LEU A   4      -8.339  41.127   4.925  0.00  0.00    -0.286 OA
ENDBRANCH  29  30
BRANCH  29  32
ATOM     32  CB  LEU A   4      -5.627  39.408   4.224  0.00  0.00    +0.028 C 
BRANCH  32  33
ATOM     33  CG  LEU A   4      -4.100  39.377   4.310  0.00  0.00    +0.002 C 
ATOM     34  CD2 LEU A   4      -3.564  40.801   4.282  0.00  0.00    +0.000 C 
ATOM     35  CD1 LEU A   4      -3.532  38.559   3.168  0.00  0.00    +0.000 C 
ENDBRANCH  32  33
ENDBRANCH  29  32
ENDBRANCH  27  29
ENDBRANCH  24  25
BRANCH  24  36
ATOM     36  CB  LEU A   3      -6.721  38.519  10.076  0.00  0.00    +0.029 C 
BRANCH  36  37
ATOM     37  CG  LEU A   3      -8.128  38.060   9.673  0.00  0.00    +0.002 C 
ATOM     38  CD2 LEU A   3      -9.011  38.038  10.906  0.00  0.00    +0.000 C 
ATOM     39  CD1 LEU A   3      -8.076  36.681   9.019  0.00  0.00    +0.000 C 
ENDBRANCH  36  37
ENDBRANCH  24  36
ENDBRANCH   2  24
TORSDOF 18
REMARK  Name = ../refined-set-2016/2fvd/2fvd_pocket.pdb
REMARK  234 active torsions:
REMARK  status: ('A' for Active; 'I' for Inactive)
REMARK    1  A    between atoms: _1  and  _3
REMARK    2  A    between atoms: _3  and  _4
REMARK    3  A    between atoms: _3  and  _6
REMARK    4  A    between atoms: _6  and  _7
REMARK    5  A    between atoms: _7  and  _8
REMARK    6  A    between atoms: _11  and  _13
REMARK    7  A    between atoms: _13  and  _14
REMARK    8  A    between atoms: _13  and  _16
REMARK    9  A    between atoms: _16  and  _17
REMARK   10  A    between atoms: _17  and  _18
REMARK   11  A    between atoms: _18  and  _19
REMARK   12  A    between atoms: _19  and  _20
REMARK   13  A    between atoms: _24  and  _26
REMARK   14  A    between atoms: _26  and  _27
REMARK   15  A    between atoms: _26  and  _29
REMARK   16  A    between atoms: _29  and  _30
REMARK   17  A    between atoms: _33  and  _35
REMARK   18  A    between atoms: _35  and  _36
REMARK   19  A    between atoms: _38  and  _40
REMARK   20  A    between atoms: _40  and  _41
REMARK   21  A    between atoms: _40  and  _43
REMARK   22  A    between atoms: _43  and  _44
REMARK   23  A    between atoms: _44  and  _45
REMARK   24  A    between atoms: _48  and  _50
REMARK   25  A    between atoms: _50  and  _51
REMARK   26  A    between atoms: _53  and  _55
REMARK   27  A    between atoms: _55  and  _56
REMARK   28  A    between atoms: _55  and  _58
REMARK   29  A    between atoms: _58  and  _59
REMARK   30  A    between atoms: _62  and  _64
REMARK   31  A    between atoms: _64  and  _65
REMARK   32  A    between atoms: _64  and  _67
REMARK   33  A    between atoms: _67  and  _68
REMARK   34  A    between atoms: _73  and  _74
REMARK   35  A    between atoms: _76  and  _78
REMARK   36  A    between atoms: _78  and  _79
REMARK   37  A    between atoms: _81  and  _83
REMARK   38  A    between atoms: _83  and  _84
REMARK   39  A    between atoms: _83  and  _86
REMARK   40  A    between atoms: _89  and  _91
REMARK   41  A    between atoms: _91  and  _92
REMARK   42  A    between atoms: _91  and  _94
REMARK   43  A    between atoms: _97  and  _99
REMARK   44  A    between atoms: _99  and  _100
REMARK   45  A    between atoms: _99  and  _102
REMARK   46  A    between atoms: _102  and  _103
REMARK   47  A    between atoms: _108  and  _109
REMARK   48  A    between atoms: _111  and  _113
REMARK   49  A    between atoms: _113  and  _114
REMARK   50  A    between atoms: _113  and  _116
REMARK   51  A    between atoms: _116  and  _117
REMARK   52  A    between atoms: _117  and  _118
REMARK   53  A    between atoms: _118  and  _119
REMARK   54  A    between atoms: _119  and  _120
REMARK   55  A    between atoms: _124  and  _126
REMARK   56  A    between atoms: _126  and  _127
REMARK   57  A    between atoms: _126  and  _129
REMARK   58  A    between atoms: _132  and  _134
REMARK   59  A    between atoms: _134  and  _135
REMARK   60  A    between atoms: _134  and  _137
REMARK   61  A    between atoms: _140  and  _142
REMARK   62  A    between atoms: _142  and  _143
REMARK   63  A    between atoms: _146  and  _148
REMARK   64  A    between atoms: _148  and  _149
REMARK   65  A    between atoms: _148  and  _151
REMARK   66  A    between atoms: _151  and  _152
REMARK   67  A    between atoms: _155  and  _157
REMARK   68  A    between atoms: _157  and  _158
REMARK   69  A    between atoms: _157  and  _160
REMARK   70  A    between atoms: _160  and  _161
REMARK   71  A    between atoms: _161  and  _162
REMARK   72  A    between atoms: _162  and  _163
REMARK   73  A    between atoms: _163  and  _164
REMARK   74  A    between atoms: _168  and  _170
REMARK   75  A    between atoms: _170  and  _171
REMARK   76  A    between atoms: _170  and  _173
REMARK   77  A    between atoms: _173  and  _174
REMARK   78  A    between atoms: _174  and  _175
REMARK   79  A    between atoms: _175  and  _176
REMARK   80  A    between atoms: _176  and  _177
REMARK   81  A    between atoms: _181  and  _183
REMARK   82  A    between atoms: _183  and  _184
REMARK   83  A    between atoms: _183  and  _186
REMARK   84  A    between atoms: _186  and  _187
REMARK   85  A    between atoms: _190  and  _192
REMARK   86  A    between atoms: _192  and  _193
REMARK   87  A    between atoms: _192  and  _195
REMARK   88  A    between atoms: _198  and  _200
REMARK   89  A    between atoms: _200  and  _201
REMARK   90  A    between atoms: _200  and  _203
REMARK   91  A    between atoms: _203  and  _204
REMARK   92  A    between atoms: _204  and  _205
REMARK   93  A    between atoms: _205  and  _206
REMARK   94  A    between atoms: _206  and  _207
REMARK   95  A    between atoms: _211  and  _213
REMARK   96  A    between atoms: _213  and  _214
REMARK   97  A    between atoms: _213  and  _216
REMARK   98  A    between atoms: _216  and  _217
REMARK   99  A    between atoms: _220  and  _222
REMARK  100  A    between atoms: _222  and  _223
REMARK  101  A    between atoms: _222  and  _225
REMARK  102  A    between atoms: _225  and  _226
REMARK  103  A    between atoms: _229  and  _231
REMARK  104  A    between atoms: _231  and  _232
REMARK  105  A    between atoms: _231  and  _234
REMARK  106  A    between atoms: _234  and  _235
REMARK  107  A    between atoms: _238  and  _240
REMARK  108  A    between atoms: _240  and  _241
REMARK  109  A    between atoms: _240  and  _243
REMARK  110  A    between atoms: _246  and  _248
REMARK  111  A    between atoms: _248  and  _249
REMARK  112  A    between atoms: _248  and  _251
REMARK  113  A    between atoms: _251  and  _252
REMARK  114  A    between atoms: _258  and  _260
REMARK  115  A    between atoms: _260  and  _261
REMARK  116  A    between atoms: _260  and  _263
REMARK  117  A    between atoms: _263  and  _264
REMARK  118  A    between atoms: _264  and  _265
REMARK  119  A    between atoms: _268  and  _270
REMARK  120  A    between atoms: _270  and  _271
REMARK  121  A    between atoms: _270  and  _273
REMARK  122  A    between atoms: _273  and  _274
REMARK  123  A    between atoms: _280  and  _282
REMARK  124  A    between atoms: _282  and  _283
REMARK  125  A    between atoms: _282  and  _285
REMARK  126  A    between atoms: _285  and  _286
REMARK  127  A    between atoms: _289  and  _291
REMARK  128  A    between atoms: _291  and  _292
REMARK  129  A    between atoms: _291  and  _294
REMARK  130  A    between atoms: _294  and  _295
REMARK  131  A    between atoms: _300  and  _302
REMARK  132  A    between atoms: _302  and  _303
REMARK  133  A    between atoms: _302  and  _305
REMARK  134  A    between atoms: _305  and  _306
REMARK  135  A    between atoms: _306  and  _307
REMARK  136  A    between atoms: _312  and  _314
REMARK  137  A    between atoms: _314  and  _315
REMARK  138  A    between atoms: _314  and  _317
REMARK  139  A    between atoms: _317  and  _318
REMARK  140  A    between atoms: _321  and  _323
REMARK  141  A    between atoms: _323  and  _324
REMARK  142  A    between atoms: _323  and  _326
REMARK  143  A    between atoms: _326  and  _327
REMARK  144  A    between atoms: _330  and  _332
REMARK  145  A    between atoms: _332  and  _333
REMARK  146  A    between atoms: _332  and  _335
REMARK  147  A    between atoms: _335  and  _336
REMARK  148  A    between atoms: _336  and  _337
REMARK  149  A    between atoms: _337  and  _338
REMARK  150  A    between atoms: _338  and  _339
REMARK  151  A    between atoms: _343  and  _345
REMARK  152  A    between atoms: _345  and  _346
REMARK  153  A    between atoms: _345  and  _348
REMARK  154  A    between atoms: _348  and  _349
REMARK  155  A    between atoms: _349  and  _350
REMARK  156  A    between atoms: _350  and  _351
REMARK  157  A    between atoms: _351  and  _352
REMARK  158  A    between atoms: _356  and  _358
REMARK  159  A    between atoms: _358  and  _359
REMARK  160  A    between atoms: _358  and  _361
REMARK  161  A    between atoms: _361  and  _362
REMARK  162  A    between atoms: _368  and  _370
REMARK  163  A    between atoms: _370  and  _371
REMARK  164  A    between atoms: _370  and  _373
REMARK  165  A    between atoms: _373  and  _374
REMARK  166  A    between atoms: _374  and  _375
REMARK  167  A    between atoms: _377  and  _379
REMARK  168  A    between atoms: _379  and  _380
REMARK  169  A    between atoms: _379  and  _382
REMARK  170  A    between atoms: _382  and  _383
REMARK  171  A    between atoms: _388  and  _390
REMARK  172  A    between atoms: _390  and  _391
REMARK  173  A    between atoms: _390  and  _393
REMARK  174  A    between atoms: _393  and  _394
REMARK  175  A    between atoms: _394  and  _395
REMARK  176  A    between atoms: _395  and  _396
REMARK  177  A    between atoms: _396  and  _397
REMARK  178  A    between atoms: _402  and  _403
REMARK  179  A    between atoms: _408  and  _410
REMARK  180  A    between atoms: _410  and  _411
REMARK  181  A    between atoms: _410  and  _413
REMARK  182  A    between atoms: _413  and  _414
REMARK  183  A    between atoms: _414  and  _415
REMARK  184  A    between atoms: _420  and  _422
REMARK  185  A    between atoms: _422  and  _423
REMARK  186  A    between atoms: _422  and  _425
REMARK  187  A    between atoms: _425  and  _426
REMARK  188  A    between atoms: _431  and  _433
REMARK  189  A    between atoms: _433  and  _434
REMARK  190  A    between atoms: _433  and  _436
REMARK  191  A    between atoms: _436  and  _437
REMARK  192  A    between atoms: _440  and  _442
REMARK  193  A    between atoms: _442  and  _443
REMARK  194  A    between atoms: _442  and  _445
REMARK  195  A    between atoms: _445  and  _446
REMARK  196  A    between atoms: _449  and  _451
REMARK  197  A    between atoms: _451  and  _452
REMARK  198  A    between atoms: _451  and  _454
REMARK  199  A    between atoms: _454  and  _455
REMARK  200  A    between atoms: _458  and  _460
REMARK  201  A    between atoms: _460  and  _461
REMARK  202  A    between atoms: _460  and  _463
REMARK  203  A    between atoms: _463  and  _464
REMARK  204  A    between atoms: _464  and  _465
REMARK  205  A    between atoms: _465  and  _466
REMARK  206  A    between atoms: _466  and  _467
REMARK  207  A    between atoms: _471  and  _473
REMARK  208  A    between atoms: _473  and  _474
REMARK  209  A    between atoms: _473  and  _476
REMARK  210  A    between atoms: _476  and  _477
REMARK  211  A    between atoms: _480  and  _482
REMARK  212  A    between atoms: _482  and  _483
REMARK  213  A    between atoms: _486  and  _488
REMARK  214  A    between atoms: _488  and  _489
REMARK  215  A    between atoms: _488  and  _491
REMARK  216  A    between atoms: _491  and  _492
REMARK  217  A    between atoms: _495  and  _497
REMARK  218  A    between atoms: _497  and  _498
REMARK  219  A    between atoms: _497  and  _500
REMARK  220  A    between atoms: _500  and  _501
REMARK  221  A    between atoms: _507  and  _509
REMARK  222  A    between atoms: _509  and  _510
REMARK  223  A    between atoms: _509  and  _512
REMARK  224  A    between atoms: _512  and  _513
REMARK  225  A    between atoms: _516  and  _518
REMARK  226  A    between atoms: _518  and  _519
REMARK  227  A    between atoms: _518  and  _521
REMARK  228  A    between atoms: _521  and  _522
REMARK  229  A    between atoms: _522  and  _523
REMARK  230  A    between atoms: _523  and  _524
REMARK  231  A    between atoms: _533  and  _535
REMARK  232  A    between atoms: _535  and  _536
REMARK  233  A    between atoms: _535  and  _538
REMARK  234  A    between atoms: _538  and  _539
REMARK                            x       y       z     vdW  Elec       q    Type
REMARK                         _______ _______ _______ _____ _____    ______ ____
ROOT
ATOM      1  CA  GLN A   8       8.493  28.910   7.905  0.00  0.00    +0.149 C 
ENDROOT
BRANCH   1   2
ATOM      2  C   GLN A   8       8.011  29.176   9.326  0.00  0.00    +0.241 C 
ATOM      3  N   ASP A   9       7.936  28.123  10.140  0.00  0.00    -0.297 N 
ATOM      4  H   ASP A   9       8.171  27.174   9.785  0.00  0.00    +0.150 HD
ATOM      5  O   GLN A   8       7.689  30.314   9.673  0.00  0.00    -0.273 OA
BRANCH   3   6
ATOM      6  CA  ASP A   9       7.525  28.299  11.528  0.00  0.00    +0.160 C 
BRANCH   6   7
ATOM      7  C   ASP A   9       8.717  28.025  12.438  0.00  0.00    +0.241 C 
ATOM      8  N   LEU A  10       8.614  28.444  13.693  0.00  0.00    -0.297 N 
ATOM      9  H   LEU A  10       7.733  28.896  14.011  0.00  0.00    +0.150 HD
ATOM     10  O   ASP A   9       9.727  27.460  12.003  0.00  0.00    -0.273 OA
BRANCH   8  11
ATOM     11  CA  LEU A  10       9.716  28.281  14.632  0.00  0.00    +0.149 C 
BRANCH  11  12
ATOM     12  C   LEU A  10      10.107  26.832  14.860  0.00  0.00    +0.241 C 
ATOM     13  O   LEU A  10      11.283  26.528  15.074  0.00  0.00    -0.273 OA
ATOM     14  N   LYS A  11       9.124  25.943  14.813  0.00  0.00    -0.297 N 
ATOM     15  H   LYS A  11       8.152  26.265  14.629  0.00  0.00    +0.150 HD
BRANCH  14  16
ATOM     16  CA  LYS A  11       9.381  24.525  15.014  0.00  0.00    +0.149 C 
BRANCH  16  17
ATOM     17  C   LYS A  11      10.388  24.014  13.991  0.00  0.00    +0.241 C 
ATOM     18  O   LYS A  11      11.380  23.377  14.348  0.00  0.00    -0.273 OA
ATOM     19  N   LYS A  12      10.139  24.304  12.716  0.00  0.00    -0.297 N 
ATOM     20  H   LYS A  12       9.290  24.854  12.476  0.00  0.00    +0.150 HD
BRANCH  19  21
ATOM     21  CA  LYS A  12      11.033  23.866  11.648  0.00  0.00    +0.149 C 
BRANCH  21  22
ATOM     22  C   LYS A  12      12.424  24.476  11.773  0.00  0.00    +0.241 C 
ATOM     23  N   PHE A  13      12.477  25.741  12.177  0.00  0.00    -0.297 N 
ATOM     24  H   PHE A  13      11.591  26.242  12.391  0.00  0.00    +0.150 HD
ATOM     25  O   LYS A  12      13.433  23.813  11.508  0.00  0.00    -0.273 OA
BRANCH  23  26
ATOM     26  CA  PHE A  13      13.743  26.442  12.327  0.00  0.00    +0.153 C 
BRANCH  26  27
ATOM     27  C   PHE A  13      14.567  25.848  13.473  0.00  0.00    +0.241 C 
ATOM     28  N   MET A  14      13.910  25.528  14.581  0.00  0.00    -0.298 N 
ATOM     29  H   MET A  14      12.886  25.698  14.644  0.00  0.00    +0.150 HD
ATOM     30  O   PHE A  13      15.781  25.687  13.357  0.00  0.00    -0.273 OA
BRANCH  28  31
ATOM     31  CA  MET A  14      14.622  24.938  15.711  0.00  0.00    +0.138 C 
BRANCH  31  32
ATOM     32  C   MET A  14      15.203  23.589  15.324  0.00  0.00    +0.227 C 
ATOM     33  O   MET A  14      16.344  23.281  15.670  0.00  0.00    -0.286 OA
ENDBRANCH  31  32
BRANCH  31  34
ATOM     34  CB  MET A  14      13.698  24.766  16.915  0.00  0.00    +0.039 C 
BRANCH  34  35
ATOM     35  CG  MET A  14      13.417  26.052  17.663  0.00  0.00    +0.060 C 
BRANCH  35  36
ATOM     36  SD  MET A  14      12.729  25.724  19.286  0.00  0.00    -0.139 S 
ATOM     37  CE  MET A  14      11.015  25.417  18.854  0.00  0.00    +0.069 C 
ENDBRANCH  35  36
ENDBRANCH  34  35
ENDBRANCH  31  34
ENDBRANCH  28  31
ENDBRANCH  26  27
BRANCH  26  38
ATOM     38  CB  PHE A  13      13.481  27.931  12.573  0.00  0.00    +0.055 C 
BRANCH  38  39
ATOM     39  CG  PHE A  13      14.727  28.758  12.685  0.00  0.00    -0.020 A 
ATOM     40  CD2 PHE A  13      14.956  29.538  13.815  0.00  0.00    -0.004 A 
ATOM     41  CE2 PHE A  13      16.109  30.322  13.923  0.00  0.00    -0.000 A 
ATOM     42  CZ  PHE A  13      17.047  30.328  12.889  0.00  0.00    -0.000 A 
ATOM     43  CE1 PHE A  13      16.825  29.550  11.754  0.00  0.00    -0.000 A 
ATOM     44  CD1 PHE A  13      15.668  28.771  11.659  0.00  0.00    -0.004 A 
ENDBRANCH  38  39
ENDBRANCH  26  38
ENDBRANCH  23  26
ENDBRANCH  21  22
BRANCH  21  45
ATOM     45  CB  LYS A  12      10.439  24.222  10.279  0.00  0.00    +0.029 C 
BRANCH  45  46
ATOM     46  CG  LYS A  12      11.325  23.837   9.097  0.00  0.00    +0.000 C 
BRANCH  46  47
ATOM     47  CD  LYS A  12      10.591  24.023   7.765  0.00  0.00    -0.024 C 
BRANCH  47  48
ATOM     48  CE  LYS A  12      11.469  23.627   6.583  0.00  0.00    -0.086 C 
BRANCH  48  49
ATOM     49  NZ  LYS A  12      10.754  23.794   5.282  0.00  0.00    +0.380 N 
ATOM     50  HZ1 LYS A  12       9.905  23.194   5.275  0.00  0.00    -0.089 HD
ATOM     51  HZ2 LYS A  12      10.477  24.790   5.165  0.00  0.00    -0.089 HD
ATOM     52  HZ3 LYS A  12      11.384  23.515   4.503  0.00  0.00    -0.089 HD
ENDBRANCH  48  49
ENDBRANCH  47  48
ENDBRANCH  46  47
ENDBRANCH  45  46
ENDBRANCH  21  45
ENDBRANCH  19  21
ENDBRANCH  16  17
BRANCH  16  53
ATOM     53  CB  LYS A  11       8.077  23.737  14.906  0.00  0.00    +0.029 C 
BRANCH  53  54
ATOM     54  CG  LYS A  11       8.218  22.270  15.245  0.00  0.00    +0.000 C 
BRANCH  54  55
ATOM     55  CD  LYS A  11       6.854  21.622  15.377  0.00  0.00    -0.024 C 
BRANCH  55  56
ATOM     56  CE  LYS A  11       6.977  20.180  15.833  0.00  0.00    -0.086 C 
BRANCH  56  57
ATOM     57  NZ  LYS A  11       5.658  19.637  16.221  0.00  0.00    +0.380 N 
ATOM     58  HZ1 LYS A  11       5.267  20.203  17.001  0.00  0.00    -0.089 HD
ATOM     59  HZ2 LYS A  11       5.768  18.650  16.529  0.00  0.00    -0.089 HD
ATOM     60  HZ3 LYS A  11       5.014  19.677  15.405  0.00  0.00    -0.089 HD
ENDBRANCH  56  57
ENDBRANCH  55  56
ENDBRANCH  54  55
ENDBRANCH  53  54
ENDBRANCH  16  53
ENDBRANCH  14  16
ENDBRANCH  11  12
BRANCH  11  61
ATOM     61  CB  LEU A  10       9.376  28.938  15.971  0.00  0.00    +0.029 C 
BRANCH  61  62
ATOM     62  CG  LEU A  10      10.499  28.905  17.012  0.00  0.00    +0.002 C 
ATOM     63  CD2 LEU A  10      10.002  29.533  18.312  0.00  0.00    +0.000 C 
ATOM     64  CD1 LEU A  10      11.721  29.667  16.492  0.00  0.00    +0.000 C 
ENDBRANCH  61  62
ENDBRANCH  11  61
ENDBRANCH   8  11
ENDBRANCH   6   7
BRANCH   6  65
ATOM     65  CB  ASP A   9       6.314  27.415  11.896  0.00  0.00    +0.143 C 
BRANCH  65  66
ATOM     66  CG  ASP A   9       6.584  25.925  11.757  0.00  0.00    +0.367 C 
ATOM     67  OD2 ASP A   9       7.677  25.460  12.142  0.00  0.00    -0.246 OA
ATOM     68  OD1 ASP A   9       5.675  25.211  11.282  0.00  0.00    -0.246 OA
ENDBRANCH  65  66
ENDBRANCH   6  65
ENDBRANCH   3   6
ENDBRANCH   1   2
BRANCH   1  70
ATOM     69  C   HIS A   7       7.893  29.572   5.683  0.00  0.00    +0.241 C 
ATOM     70  N   GLN A   8       8.019  29.915   6.957  0.00  0.00    -0.297 N 
ATOM     71  H   GLN A   8       7.786  30.878   7.274  0.00  0.00    +0.150 HD
ATOM     72  O   HIS A   7       8.102  28.423   5.294  0.00  0.00    -0.273 OA
BRANCH  69  73
ATOM     73  CA  HIS A   7       7.461  30.634   4.687  0.00  0.00    +0.155 C 
BRANCH  73  76
ATOM     74  C   LEU A   6       5.615  31.978   5.531  0.00  0.00    +0.241 C 
ATOM     75  O   LEU A   6       4.885  30.992   5.623  0.00  0.00    -0.273 OA
ATOM     76  N   HIS A   7       6.881  31.900   5.135  0.00  0.00    -0.297 N 
ATOM     77  H   HIS A   7       7.471  32.756   5.144  0.00  0.00    +0.150 HD
BRANCH  74  78
ATOM     78  CA  LEU A   6       5.082  33.368   5.876  0.00  0.00    +0.149 C 
BRANCH  78  80
ATOM     79  C   PHE A   5       3.191  34.304   4.629  0.00  0.00    +0.241 C 
ATOM     80  N   LEU A   6       3.683  33.360   5.430  0.00  0.00    -0.297 N 
ATOM     81  H   LEU A   6       3.057  32.594   5.749  0.00  0.00    +0.150 HD
ATOM     82  O   PHE A   5       3.825  35.302   4.301  0.00  0.00    -0.273 OA
BRANCH  79  83
ATOM     83  CA  PHE A   5       1.753  34.112   4.152  0.00  0.00    +0.153 C 
BRANCH  83  86
ATOM     84  C   GLU A   4       0.236  35.657   5.261  0.00  0.00    +0.241 C 
ATOM     85  O   GLU A   4       0.249  34.991   6.298  0.00  0.00    -0.273 OA
ATOM     86  N   PHE A   5       0.936  35.320   4.187  0.00  0.00    -0.297 N 
ATOM     87  H   PHE A   5       0.902  35.933   3.347  0.00  0.00    +0.150 HD
BRANCH  84  88
ATOM     88  CA  GLU A   4      -0.602  36.935   5.164  0.00  0.00    +0.149 C 
BRANCH  88  90
ATOM     89  C   PHE A   3      -2.646  35.689   5.492  0.00  0.00    +0.241 C 
ATOM     90  N   GLU A   4      -1.812  36.635   5.913  0.00  0.00    -0.297 N 
ATOM     91  H   GLU A   4      -2.026  37.163   6.783  0.00  0.00    +0.150 HD
ATOM     92  O   PHE A   3      -2.479  35.070   4.443  0.00  0.00    -0.273 OA
BRANCH  89  93
ATOM     93  CA  PHE A   3      -3.844  35.400   6.385  0.00  0.00    +0.153 C 
BRANCH  93  96
ATOM     94  C   VAL A   2      -6.110  35.519   5.497  0.00  0.00    +0.241 C 
ATOM     95  O   VAL A   2      -6.278  36.660   5.921  0.00  0.00    -0.273 OA
ATOM     96  N   PHE A   3      -4.978  34.841   5.660  0.00  0.00    -0.297 N 
ATOM     97  H   PHE A   3      -4.900  33.885   5.259  0.00  0.00    +0.150 HD
BRANCH  94  98
ATOM     98  CA  VAL A   2      -7.217  34.803   4.739  0.00  0.00    +0.148 C 
BRANCH  98 101
ATOM     99  C   LEU A   1      -8.574  33.375   6.152  0.00  0.00    +0.238 C 
ATOM    100  O   LEU A   1      -7.856  32.399   5.937  0.00  0.00    -0.274 OA
ATOM    101  N   VAL A   2      -8.343  34.570   5.625  0.00  0.00    -0.297 N 
ATOM    102  H   VAL A   2      -8.983  35.358   5.852  0.00  0.00    +0.150 HD
BRANCH  99 103
ATOM    103  CA  LEU A   1      -9.805  33.255   7.042  0.00  0.00    +0.145 C 
BRANCH 103 104
ATOM    104  N   LEU A   1     -10.609  32.199   6.441  0.00  0.00    -0.238 NA
ATOM    105  H   LEU A   1     -10.224  31.234   6.397  0.00  0.00    +0.142 HD
ENDBRANCH 103 104
BRANCH 103 106
ATOM    106  CB  LEU A   1      -9.396  32.892   8.471  0.00  0.00    +0.026 C 
BRANCH 106 107
ATOM    107  CG  LEU A   1     -10.533  32.618   9.464  0.00  0.00    +0.002 C 
ATOM    108  CD2 LEU A   1      -9.956  32.461  10.865  0.00  0.00    +0.000 C 
ATOM    109  CD1 LEU A   1     -11.531  33.758   9.433  0.00  0.00    +0.000 C 
ENDBRANCH 106 107
ENDBRANCH 103 106
ENDBRANCH  99 103
ENDBRANCH  98 101
BRANCH  98 110
ATOM    110  CB  VAL A   2      -7.648  35.656   3.529  0.00  0.00    +0.027 C 
ATOM    111  CG2 VAL A   2      -8.858  35.027   2.869  0.00  0.00    +0.002 C 
ATOM    112  CG1 VAL A   2      -6.501  35.782   2.539  0.00  0.00    +0.002 C 
ENDBRANCH  98 110
ENDBRANCH  94  98
ENDBRANCH  93  96
BRANCH  93 113
ATOM    113  CB  PHE A   3      -3.397  34.419   7.476  0.00  0.00    +0.055 C 
BRANCH 113 114
ATOM    114  CG  PHE A   3      -4.390  34.240   8.585  0.00  0.00    -0.020 A 
ATOM    115  CD2 PHE A   3      -4.521  35.206   9.580  0.00  0.00    -0.004 A 
ATOM    116  CE2 PHE A   3      -5.413  35.029  10.634  0.00  0.00    -0.000 A 
ATOM    117  CZ  PHE A   3      -6.190  33.871  10.700  0.00  0.00    -0.000 A 
ATOM    118  CE1 PHE A   3      -6.071  32.901   9.708  0.00  0.00    -0.000 A 
ATOM    119  CD1 PHE A   3      -5.173  33.090   8.656  0.00  0.00    -0.004 A 
ENDBRANCH 113 114
ENDBRANCH  93 113
ENDBRANCH  89  93
ENDBRANCH  88  90
BRANCH  88 120
ATOM    120  CB  GLU A   4       0.159  38.103   5.804  0.00  0.00    +0.041 C 
BRANCH 120 121
ATOM    121  CG  GLU A   4       0.745  37.771   7.159  0.00  0.00    +0.116 C 
BRANCH 121 122
ATOM    122  CD  GLU A   4       1.653  38.857   7.708  0.00  0.00    +0.365 C 
ATOM    123  OE2 GLU A   4       1.382  39.348   8.818  0.00  0.00    -0.246 OA
ATOM    124  OE1 GLU A   4       2.643  39.213   7.036  0.00  0.00    -0.246 OA
ENDBRANCH 121 122
ENDBRANCH 120 121
ENDBRANCH  88 120
ENDBRANCH  84  88
ENDBRANCH  83  86
BRANCH  83 125
ATOM    125  CB  PHE A   5       1.770  33.560   2.720  0.00  0.00    +0.055 C 
BRANCH 125 126
ATOM    126  CG  PHE A   5       2.578  32.305   2.559  0.00  0.00    -0.020 A 
ATOM    127  CD2 PHE A   5       2.011  31.065   2.833  0.00  0.00    -0.004 A 
ATOM    128  CE2 PHE A   5       2.759  29.896   2.718  0.00  0.00    -0.000 A 
ATOM    129  CZ  PHE A   5       4.085  29.961   2.324  0.00  0.00    -0.000 A 
ATOM    130  CE1 PHE A   5       4.664  31.196   2.044  0.00  0.00    -0.000 A 
ATOM    131  CD1 PHE A   5       3.910  32.360   2.163  0.00  0.00    -0.004 A 
ENDBRANCH 125 126
ENDBRANCH  83 125
ENDBRANCH  79  83
ENDBRANCH  78  80
BRANCH  78 132
ATOM    132  CB  LEU A   6       5.227  33.661   7.373  0.00  0.00    +0.029 C 
BRANCH 132 133
ATOM    133  CG  LEU A   6       5.026  35.138   7.720  0.00  0.00    +0.002 C 
ATOM    134  CD2 LEU A   6       5.927  35.540   8.892  0.00  0.00    +0.000 C 
ATOM    135  CD1 LEU A   6       3.567  35.366   8.083  0.00  0.00    +0.000 C 
ENDBRANCH 132 133
ENDBRANCH  78 132
ENDBRANCH  74  78
ENDBRANCH  73  76
BRANCH  73 136
ATOM    136  CB  HIS A   7       8.647  30.911   3.756  0.00  0.00    +0.076 C 
BRANCH 136 137
ATOM    137  CG  HIS A   7       8.263  31.552   2.460  0.00  0.00    +0.082 A 
ATOM    138  ND1 HIS A   7       7.991  32.898   2.345  0.00  0.00    -0.227 NA
ATOM    139  CE1 HIS A   7       7.637  33.170   1.102  0.00  0.00    +0.199 A 
ATOM    140  NE2 HIS A   7       7.673  32.048   0.404  0.00  0.00    -0.221 NA
ATOM    141  CD2 HIS A   7       8.064  31.021   1.229  0.00  0.00    +0.115 A 
ENDBRANCH 136 137
ENDBRANCH  73 136
ENDBRANCH  69  73
ENDBRANCH   1  70
BRANCH   1 142
ATOM    142  CB  GLN A   8      10.026  28.892   7.855  0.00  0.00    +0.039 C 
BRANCH 142 143
ATOM    143  CG  GLN A   8      10.708  27.706   8.527  0.00  0.00    +0.087 C 
BRANCH 143 144
ATOM    144  CD  GLN A   8      12.149  27.539   8.051  0.00  0.00    +0.219 C 
ATOM    145  NE2 GLN A   8      13.096  27.714   8.961  0.00  0.00    -0.329 N 
ATOM    146 HE21 GLN A   8      12.838  27.943   9.942  0.00  0.00    +0.145 HD
ATOM    147 HE22 GLN A   8      14.097  27.623   8.694  0.00  0.00    +0.145 HD
ATOM    148  OE1 GLN A   8      12.403  27.265   6.868  0.00  0.00    -0.275 OA
ENDBRANCH 143 144
ENDBRANCH 142 143
ENDBRANCH   1 142
TORSDOF 64
REMARK  Name = ../refined-set-2016/2fvd/2fvd_pocket.pdb
REMARK  234 active torsions:
REMARK  status: ('A' for Active; 'I' for Inactive)
REMARK    1  A    between atoms: _1  and  _3
REMARK    2  A    between atoms: _3  and  _4
REMARK    3  A    between atoms: _3  and  _6
REMARK    4  A    between atoms: _6  and  _7
REMARK    5  A    between atoms: _7  and  _8
REMARK    6  A    between atoms: _11  and  _13
REMARK    7  A    between atoms: _13  and  _14
REMARK    8  A    between atoms: _13  and  _16
REMARK    9  A    between atoms: _16  and  _17
REMARK   10  A    between atoms: _17  and  _18
REMARK   11  A    between atoms: _18  and  _19
REMARK   12  A    between atoms: _19  and  _20
REMARK   13  A    between atoms: _24  and  _26
REMARK   14  A    between atoms: _26  and  _27
REMARK   15  A    between atoms: _26  and  _29
REMARK   16  A    between atoms: _29  and  _30
REMARK   17  A    between atoms: _33  and  _35
REMARK   18  A    between atoms: _35  and  _36
REMARK   19  A    between atoms: _38  and  _40
REMARK   20  A    between atoms: _40  and  _41
REMARK   21  A    between atoms: _40  and  _43
REMARK   22  A    between atoms: _43  and  _44
REMARK   23  A    between atoms: _44  and  _45
REMARK   24  A    between atoms: _48  and  _50
REMARK   25  A    between atoms: _50  and  _51
REMARK   26  A    between atoms: _53  and  _55
REMARK   27  A    between atoms: _55  and  _56
REMARK   28  A    between atoms: _55  and  _58
REMARK   29  A    between atoms: _58  and  _59
REMARK   30  A    between atoms: _62  and  _64
REMARK   31  A    between atoms: _64  and  _65
REMARK   32  A    between atoms: _64  and  _67
REMARK   33  A    between atoms: _67  and  _68
REMARK   34  A    between atoms: _73  and  _74
REMARK   35  A    between atoms: _76  and  _78
REMARK   36  A    between atoms: _78  and  _79
REMARK   37  A    between atoms: _81  and  _83
REMARK   38  A    between atoms: _83  and  _84
REMARK   39  A    between atoms: _83  and  _86
REMARK   40  A    between atoms: _89  and  _91
REMARK   41  A    between atoms: _91  and  _92
REMARK   42  A    between atoms: _91  and  _94
REMARK   43  A    between atoms: _97  and  _99
REMARK   44  A    between atoms: _99  and  _100
REMARK   45  A    between atoms: _99  and  _102
REMARK   46  A    between atoms: _102  and  _103
REMARK   47  A    between atoms: _108  and  _109
REMARK   48  A    between atoms: _111  and  _113
REMARK   49  A    between atoms: _113  and  _114
REMARK   50  A    between atoms: _113  and  _116
REMARK   51  A    between atoms: _116  and  _117
REMARK   52  A    between atoms: _117  and  _118
REMARK   53  A    between atoms: _118  and  _119
REMARK   54  A    between atoms: _119  and  _120
REMARK   55  A    between atoms: _124  and  _126
REMARK   56  A    between atoms: _126  and  _127
REMARK   57  A    between atoms: _126  and  _129
REMARK   58  A    between atoms: _132  and  _134
REMARK   59  A    between atoms: _134  and  _135
REMARK   60  A    between atoms: _134  and  _137
REMARK   61  A    between atoms: _140  and  _142
REMARK   62  A    between atoms: _142  and  _143
REMARK   63  A    between atoms: _146  and  _148
REMARK   64  A    between atoms: _148  and  _149
REMARK   65  A    between atoms: _148  and  _151
REMARK   66  A    between atoms: _151  and  _152
REMARK   67  A    between atoms: _155  and  _157
REMARK   68  A    between atoms: _157  and  _158
REMARK   69  A    between atoms: _157  and  _160
REMARK   70  A    between atoms: _160  and  _161
REMARK   71  A    between atoms: _161  and  _162
REMARK   72  A    between atoms: _162  and  _163
REMARK   73  A    between atoms: _163  and  _164
REMARK   74  A    between atoms: _168  and  _170
REMARK   75  A    between atoms: _170  and  _171
REMARK   76  A    between atoms: _170  and  _173
REMARK   77  A    between atoms: _173  and  _174
REMARK   78  A    between atoms: _174  and  _175
REMARK   79  A    between atoms: _175  and  _176
REMARK   80  A    between atoms: _176  and  _177
REMARK   81  A    between atoms: _181  and  _183
REMARK   82  A    between atoms: _183  and  _184
REMARK   83  A    between atoms: _183  and  _186
REMARK   84  A    between atoms: _186  and  _187
REMARK   85  A    between atoms: _190  and  _192
REMARK   86  A    between atoms: _192  and  _193
REMARK   87  A    between atoms: _192  and  _195
REMARK   88  A    between atoms: _198  and  _200
REMARK   89  A    between atoms: _200  and  _201
REMARK   90  A    between atoms: _200  and  _203
REMARK   91  A    between atoms: _203  and  _204
REMARK   92  A    between atoms: _204  and  _205
REMARK   93  A    between atoms: _205  and  _206
REMARK   94  A    between atoms: _206  and  _207
REMARK   95  A    between atoms: _211  and  _213
REMARK   96  A    between atoms: _213  and  _214
REMARK   97  A    between atoms: _213  and  _216
REMARK   98  A    between atoms: _216  and  _217
REMARK   99  A    between atoms: _220  and  _222
REMARK  100  A    between atoms: _222  and  _223
REMARK  101  A    between atoms: _222  and  _225
REMARK  102  A    between atoms: _225  and  _226
REMARK  103  A    between atoms: _229  and  _231
REMARK  104  A    between atoms: _231  and  _232
REMARK  105  A    between atoms: _231  and  _234
REMARK  106  A    between atoms: _234  and  _235
REMARK  107  A    between atoms: _238  and  _240
REMARK  108  A    between atoms: _240  and  _241
REMARK  109  A    between atoms: _240  and  _243
REMARK  110  A    between atoms: _246  and  _248
REMARK  111  A    between atoms: _248  and  _249
REMARK  112  A    between atoms: _248  and  _251
REMARK  113  A    between atoms: _251  and  _252
REMARK  114  A    between atoms: _258  and  _260
REMARK  115  A    between atoms: _260  and  _261
REMARK  116  A    between atoms: _260  and  _263
REMARK  117  A    between atoms: _263  and  _264
REMARK  118  A    between atoms: _264  and  _265
REMARK  119  A    between atoms: _268  and  _270
REMARK  120  A    between atoms: _270  and  _271
REMARK  121  A    between atoms: _270  and  _273
REMARK  122  A    between atoms: _273  and  _274
REMARK  123  A    between atoms: _280  and  _282
REMARK  124  A    between atoms: _282  and  _283
REMARK  125  A    between atoms: _282  and  _285
REMARK  126  A    between atoms: _285  and  _286
REMARK  127  A    between atoms: _289  and  _291
REMARK  128  A    between atoms: _291  and  _292
REMARK  129  A    between atoms: _291  and  _294
REMARK  130  A    between atoms: _294  and  _295
REMARK  131  A    between atoms: _300  and  _302
REMARK  132  A    between atoms: _302  and  _303
REMARK  133  A    between atoms: _302  and  _305
REMARK  134  A    between atoms: _305  and  _306
REMARK  135  A    between atoms: _306  and  _307
REMARK  136  A    between atoms: _312  and  _314
REMARK  137  A    between atoms: _314  and  _315
REMARK  138  A    between atoms: _314  and  _317
REMARK  139  A    between atoms: _317  and  _318
REMARK  140  A    between atoms: _321  and  _323
REMARK  141  A    between atoms: _323  and  _324
REMARK  142  A    between atoms: _323  and  _326
REMARK  143  A    between atoms: _326  and  _327
REMARK  144  A    between atoms: _330  and  _332
REMARK  145  A    between atoms: _332  and  _333
REMARK  146  A    between atoms: _332  and  _335
REMARK  147  A    between atoms: _335  and  _336
REMARK  148  A    between atoms: _336  and  _337
REMARK  149  A    between atoms: _337  and  _338
REMARK  150  A    between atoms: _338  and  _339
REMARK  151  A    between atoms: _343  and  _345
REMARK  152  A    between atoms: _345  and  _346
REMARK  153  A    between atoms: _345  and  _348
REMARK  154  A    between atoms: _348  and  _349
REMARK  155  A    between atoms: _349  and  _350
REMARK  156  A    between atoms: _350  and  _351
REMARK  157  A    between atoms: _351  and  _352
REMARK  158  A    between atoms: _356  and  _358
REMARK  159  A    between atoms: _358  and  _359
REMARK  160  A    between atoms: _358  and  _361
REMARK  161  A    between atoms: _361  and  _362
REMARK  162  A    between atoms: _368  and  _370
REMARK  163  A    between atoms: _370  and  _371
REMARK  164  A    between atoms: _370  and  _373
REMARK  165  A    between atoms: _373  and  _374
REMARK  166  A    between atoms: _374  and  _375
REMARK  167  A    between atoms: _377  and  _379
REMARK  168  A    between atoms: _379  and  _380
REMARK  169  A    between atoms: _379  and  _382
REMARK  170  A    between atoms: _382  and  _383
REMARK  171  A    between atoms: _388  and  _390
REMARK  172  A    between atoms: _390  and  _391
REMARK  173  A    between atoms: _390  and  _393
REMARK  174  A    between atoms: _393  and  _394
REMARK  175  A    between atoms: _394  and  _395
REMARK  176  A    between atoms: _395  and  _396
REMARK  177  A    between atoms: _396  and  _397
REMARK  178  A    between atoms: _402  and  _403
REMARK  179  A    between atoms: _408  and  _410
REMARK  180  A    between atoms: _410  and  _411
REMARK  181  A    between atoms: _410  and  _413
REMARK  182  A    between atoms: _413  and  _414
REMARK  183  A    between atoms: _414  and  _415
REMARK  184  A    between atoms: _420  and  _422
REMARK  185  A    between atoms: _422  and  _423
REMARK  186  A    between atoms: _422  and  _425
REMARK  187  A    between atoms: _425  and  _426
REMARK  188  A    between atoms: _431  and  _433
REMARK  189  A    between atoms: _433  and  _434
REMARK  190  A    between atoms: _433  and  _436
REMARK  191  A    between atoms: _436  and  _437
REMARK  192  A    between atoms: _440  and  _442
REMARK  193  A    between atoms: _442  and  _443
REMARK  194  A    between atoms: _442  and  _445
REMARK  195  A    between atoms: _445  and  _446
REMARK  196  A    between atoms: _449  and  _451
REMARK  197  A    between atoms: _451  and  _452
REMARK  198  A    between atoms: _451  and  _454
REMARK  199  A    between atoms: _454  and  _455
REMARK  200  A    between atoms: _458  and  _460
REMARK  201  A    between atoms: _460  and  _461
REMARK  202  A    between atoms: _460  and  _463
REMARK  203  A    between atoms: _463  and  _464
REMARK  204  A    between atoms: _464  and  _465
REMARK  205  A    between atoms: _465  and  _466
REMARK  206  A    between atoms: _466  and  _467
REMARK  207  A    between atoms: _471  and  _473
REMARK  208  A    between atoms: _473  and  _474
REMARK  209  A    between atoms: _473  and  _476
REMARK  210  A    between atoms: _476  and  _477
REMARK  211  A    between atoms: _480  and  _482
REMARK  212  A    between atoms: _482  and  _483
REMARK  213  A    between atoms: _486  and  _488
REMARK  214  A    between atoms: _488  and  _489
REMARK  215  A    between atoms: _488  and  _491
REMARK  216  A    between atoms: _491  and  _492
REMARK  217  A    between atoms: _495  and  _497
REMARK  218  A    between atoms: _497  and  _498
REMARK  219  A    between atoms: _497  and  _500
REMARK  220  A    between atoms: _500  and  _501
REMARK  221  A    between atoms: _507  and  _509
REMARK  222  A    between atoms: _509  and  _510
REMARK  223  A    between atoms: _509  and  _512
REMARK  224  A    between atoms: _512  and  _513
REMARK  225  A    between atoms: _516  and  _518
REMARK  226  A    between atoms: _518  and  _519
REMARK  227  A    between atoms: _518  and  _521
REMARK  228  A    between atoms: _521  and  _522
REMARK  229  A    between atoms: _522  and  _523
REMARK  230  A    between atoms: _523  and  _524
REMARK  231  A    between atoms: _533  and  _535
REMARK  232  A    between atoms: _535  and  _536
REMARK  233  A    between atoms: _535  and  _538
REMARK  234  A    between atoms: _538  and  _539
REMARK                            x       y       z     vdW  Elec       q    Type
REMARK                         _______ _______ _______ _____ _____    ______ ____
ROOT
ATOM      1  CB  HIS A   1      -2.410  33.880  21.962  0.00  0.00    +0.072 C 
ENDROOT
BRANCH   1   2
ATOM      2  CG  HIS A   1      -2.083  33.068  20.751  0.00  0.00    +0.082 A 
ATOM      3  ND1 HIS A   1      -2.192  31.695  20.726  0.00  0.00    -0.227 NA
ATOM      4  CE1 HIS A   1      -1.923  31.257  19.510  0.00  0.00    +0.199 A 
ATOM      5  NE2 HIS A   1      -1.641  32.297  18.745  0.00  0.00    -0.221 NA
ATOM      6  CD2 HIS A   1      -1.730  33.441  19.498  0.00  0.00    +0.115 A 
ENDBRANCH   1   2
BRANCH   1   7
ATOM      7  CA  HIS A   1      -3.913  33.972  22.242  0.00  0.00    +0.139 C 
BRANCH   7   8
ATOM      8  N   HIS A   1      -4.178  34.854  23.369  0.00  0.00    -0.239 NA
ATOM      9  H   HIS A   1      -3.454  34.998  24.101  0.00  0.00    +0.142 HD
ENDBRANCH   7   8
BRANCH   7  10
ATOM     10  C   HIS A   1      -4.479  32.601  22.603  0.00  0.00    +0.224 C 
ATOM     11  O   HIS A   1      -5.260  32.017  21.842  0.00  0.00    -0.287 OA
ENDBRANCH   7  10
ENDBRANCH   1   7
TORSDOF 4
REMARK  Name = ../refined-set-2016/2fvd/2fvd_pocket.pdb
REMARK  234 active torsions:
REMARK  status: ('A' for Active; 'I' for Inactive)
REMARK    1  A    between atoms: _1  and  _3
REMARK    2  A    between atoms: _3  and  _4
REMARK    3  A    between atoms: _3  and  _6
REMARK    4  A    between atoms: _6  and  _7
REMARK    5  A    between atoms: _7  and  _8
REMARK    6  A    between atoms: _11  and  _13
REMARK    7  A    between atoms: _13  and  _14
REMARK    8  A    between atoms: _13  and  _16
REMARK    9  A    between atoms: _16  and  _17
REMARK   10  A    between atoms: _17  and  _18
REMARK   11  A    between atoms: _18  and  _19
REMARK   12  A    between atoms: _19  and  _20
REMARK   13  A    between atoms: _24  and  _26
REMARK   14  A    between atoms: _26  and  _27
REMARK   15  A    between atoms: _26  and  _29
REMARK   16  A    between atoms: _29  and  _30
REMARK   17  A    between atoms: _33  and  _35
REMARK   18  A    between atoms: _35  and  _36
REMARK   19  A    between atoms: _38  and  _40
REMARK   20  A    between atoms: _40  and  _41
REMARK   21  A    between atoms: _40  and  _43
REMARK   22  A    between atoms: _43  and  _44
REMARK   23  A    between atoms: _44  and  _45
REMARK   24  A    between atoms: _48  and  _50
REMARK   25  A    between atoms: _50  and  _51
REMARK   26  A    between atoms: _53  and  _55
REMARK   27  A    between atoms: _55  and  _56
REMARK   28  A    between atoms: _55  and  _58
REMARK   29  A    between atoms: _58  and  _59
REMARK   30  A    between atoms: _62  and  _64
REMARK   31  A    between atoms: _64  and  _65
REMARK   32  A    between atoms: _64  and  _67
REMARK   33  A    between atoms: _67  and  _68
REMARK   34  A    between atoms: _73  and  _74
REMARK   35  A    between atoms: _76  and  _78
REMARK   36  A    between atoms: _78  and  _79
REMARK   37  A    between atoms: _81  and  _83
REMARK   38  A    between atoms: _83  and  _84
REMARK   39  A    between atoms: _83  and  _86
REMARK   40  A    between atoms: _89  and  _91
REMARK   41  A    between atoms: _91  and  _92
REMARK   42  A    between atoms: _91  and  _94
REMARK   43  A    between atoms: _97  and  _99
REMARK   44  A    between atoms: _99  and  _100
REMARK   45  A    between atoms: _99  and  _102
REMARK   46  A    between atoms: _102  and  _103
REMARK   47  A    between atoms: _108  and  _109
REMARK   48  A    between atoms: _111  and  _113
REMARK   49  A    between atoms: _113  and  _114
REMARK   50  A    between atoms: _113  and  _116
REMARK   51  A    between atoms: _116  and  _117
REMARK   52  A    between atoms: _117  and  _118
REMARK   53  A    between atoms: _118  and  _119
REMARK   54  A    between atoms: _119  and  _120
REMARK   55  A    between atoms: _124  and  _126
REMARK   56  A    between atoms: _126  and  _127
REMARK   57  A    between atoms: _126  and  _129
REMARK   58  A    between atoms: _132  and  _134
REMARK   59  A    between atoms: _134  and  _135
REMARK   60  A    between atoms: _134  and  _137
REMARK   61  A    between atoms: _140  and  _142
REMARK   62  A    between atoms: _142  and  _143
REMARK   63  A    between atoms: _146  and  _148
REMARK   64  A    between atoms: _148  and  _149
REMARK   65  A    between atoms: _148  and  _151
REMARK   66  A    between atoms: _151  and  _152
REMARK   67  A    between atoms: _155  and  _157
REMARK   68  A    between atoms: _157  and  _158
REMARK   69  A    between atoms: _157  and  _160
REMARK   70  A    between atoms: _160  and  _161
REMARK   71  A    between atoms: _161  and  _162
REMARK   72  A    between atoms: _162  and  _163
REMARK   73  A    between atoms: _163  and  _164
REMARK   74  A    between atoms: _168  and  _170
REMARK   75  A    between atoms: _170  and  _171
REMARK   76  A    between atoms: _170  and  _173
REMARK   77  A    between atoms: _173  and  _174
REMARK   78  A    between atoms: _174  and  _175
REMARK   79  A    between atoms: _175  and  _176
REMARK   80  A    between atoms: _176  and  _177
REMARK   81  A    between atoms: _181  and  _183
REMARK   82  A    between atoms: _183  and  _184
REMARK   83  A    between atoms: _183  and  _186
REMARK   84  A    between atoms: _186  and  _187
REMARK   85  A    between atoms: _190  and  _192
REMARK   86  A    between atoms: _192  and  _193
REMARK   87  A    between atoms: _192  and  _195
REMARK   88  A    between atoms: _198  and  _200
REMARK   89  A    between atoms: _200  and  _201
REMARK   90  A    between atoms: _200  and  _203
REMARK   91  A    between atoms: _203  and  _204
REMARK   92  A    between atoms: _204  and  _205
REMARK   93  A    between atoms: _205  and  _206
REMARK   94  A    between atoms: _206  and  _207
REMARK   95  A    between atoms: _211  and  _213
REMARK   96  A    between atoms: _213  and  _214
REMARK   97  A    between atoms: _213  and  _216
REMARK   98  A    between atoms: _216  and  _217
REMARK   99  A    between atoms: _220  and  _222
REMARK  100  A    between atoms: _222  and  _223
REMARK  101  A    between atoms: _222  and  _225
REMARK  102  A    between atoms: _225  and  _226
REMARK  103  A    between atoms: _229  and  _231
REMARK  104  A    between atoms: _231  and  _232
REMARK  105  A    between atoms: _231  and  _234
REMARK  106  A    between atoms: _234  and  _235
REMARK  107  A    between atoms: _238  and  _240
REMARK  108  A    between atoms: _240  and  _241
REMARK  109  A    between atoms: _240  and  _243
REMARK  110  A    between atoms: _246  and  _248
REMARK  111  A    between atoms: _248  and  _249
REMARK  112  A    between atoms: _248  and  _251
REMARK  113  A    between atoms: _251  and  _252
REMARK  114  A    between atoms: _258  and  _260
REMARK  115  A    between atoms: _260  and  _261
REMARK  116  A    between atoms: _260  and  _263
REMARK  117  A    between atoms: _263  and  _264
REMARK  118  A    between atoms: _264  and  _265
REMARK  119  A    between atoms: _268  and  _270
REMARK  120  A    between atoms: _270  and  _271
REMARK  121  A    between atoms: _270  and  _273
REMARK  122  A    between atoms: _273  and  _274
REMARK  123  A    between atoms: _280  and  _282
REMARK  124  A    between atoms: _282  and  _283
REMARK  125  A    between atoms: _282  and  _285
REMARK  126  A    between atoms: _285  and  _286
REMARK  127  A    between atoms: _289  and  _291
REMARK  128  A    between atoms: _291  and  _292
REMARK  129  A    between atoms: _291  and  _294
REMARK  130  A    between atoms: _294  and  _295
REMARK  131  A    between atoms: _300  and  _302
REMARK  132  A    between atoms: _302  and  _303
REMARK  133  A    between atoms: _302  and  _305
REMARK  134  A    between atoms: _305  and  _306
REMARK  135  A    between atoms: _306  and  _307
REMARK  136  A    between atoms: _312  and  _314
REMARK  137  A    between atoms: _314  and  _315
REMARK  138  A    between atoms: _314  and  _317
REMARK  139  A    between atoms: _317  and  _318
REMARK  140  A    between atoms: _321  and  _323
REMARK  141  A    between atoms: _323  and  _324
REMARK  142  A    between atoms: _323  and  _326
REMARK  143  A    between atoms: _326  and  _327
REMARK  144  A    between atoms: _330  and  _332
REMARK  145  A    between atoms: _332  and  _333
REMARK  146  A    between atoms: _332  and  _335
REMARK  147  A    between atoms: _335  and  _336
REMARK  148  A    between atoms: _336  and  _337
REMARK  149  A    between atoms: _337  and  _338
REMARK  150  A    between atoms: _338  and  _339
REMARK  151  A    between atoms: _343  and  _345
REMARK  152  A    between atoms: _345  and  _346
REMARK  153  A    between atoms: _345  and  _348
REMARK  154  A    between atoms: _348  and  _349
REMARK  155  A    between atoms: _349  and  _350
REMARK  156  A    between atoms: _350  and  _351
REMARK  157  A    between atoms: _351  and  _352
REMARK  158  A    between atoms: _356  and  _358
REMARK  159  A    between atoms: _358  and  _359
REMARK  160  A    between atoms: _358  and  _361
REMARK  161  A    between atoms: _361  and  _362
REMARK  162  A    between atoms: _368  and  _370
REMARK  163  A    between atoms: _370  and  _371
REMARK  164  A    between atoms: _370  and  _373
REMARK  165  A    between atoms: _373  and  _374
REMARK  166  A    between atoms: _374  and  _375
REMARK  167  A    between atoms: _377  and  _379
REMARK  168  A    between atoms: _379  and  _380
REMARK  169  A    between atoms: _379  and  _382
REMARK  170  A    between atoms: _382  and  _383
REMARK  171  A    between atoms: _388  and  _390
REMARK  172  A    between atoms: _390  and  _391
REMARK  173  A    between atoms: _390  and  _393
REMARK  174  A    between atoms: _393  and  _394
REMARK  175  A    between atoms: _394  and  _395
REMARK  176  A    between atoms: _395  and  _396
REMARK  177  A    between atoms: _396  and  _397
REMARK  178  A    between atoms: _402  and  _403
REMARK  179  A    between atoms: _408  and  _410
REMARK  180  A    between atoms: _410  and  _411
REMARK  181  A    between atoms: _410  and  _413
REMARK  182  A    between atoms: _413  and  _414
REMARK  183  A    between atoms: _414  and  _415
REMARK  184  A    between atoms: _420  and  _422
REMARK  185  A    between atoms: _422  and  _423
REMARK  186  A    between atoms: _422  and  _425
REMARK  187  A    between atoms: _425  and  _426
REMARK  188  A    between atoms: _431  and  _433
REMARK  189  A    between atoms: _433  and  _434
REMARK  190  A    between atoms: _433  and  _436
REMARK  191  A    between atoms: _436  and  _437
REMARK  192  A    between atoms: _440  and  _442
REMARK  193  A    between atoms: _442  and  _443
REMARK  194  A    between atoms: _442  and  _445
REMARK  195  A    between atoms: _445  and  _446
REMARK  196  A    between atoms: _449  and  _451
REMARK  197  A    between atoms: _451  and  _452
REMARK  198  A    between atoms: _451  and  _454
REMARK  199  A    between atoms: _454  and  _455
REMARK  200  A    between atoms: _458  and  _460
REMARK  201  A    between atoms: _460  and  _461
REMARK  202  A    between atoms: _460  and  _463
REMARK  203  A    between atoms: _463  and  _464
REMARK  204  A    between atoms: _464  and  _465
REMARK  205  A    between atoms: _465  and  _466
REMARK  206  A    between atoms: _466  and  _467
REMARK  207  A    between atoms: _471  and  _473
REMARK  208  A    between atoms: _473  and  _474
REMARK  209  A    between atoms: _473  and  _476
REMARK  210  A    between atoms: _476  and  _477
REMARK  211  A    between atoms: _480  and  _482
REMARK  212  A    between atoms: _482  and  _483
REMARK  213  A    between atoms: _486  and  _488
REMARK  214  A    between atoms: _488  and  _489
REMARK  215  A    between atoms: _488  and  _491
REMARK  216  A    between atoms: _491  and  _492
REMARK  217  A    between atoms: _495  and  _497
REMARK  218  A    between atoms: _497  and  _498
REMARK  219  A    between atoms: _497  and  _500
REMARK  220  A    between atoms: _500  and  _501
REMARK  221  A    between atoms: _507  and  _509
REMARK  222  A    between atoms: _509  and  _510
REMARK  223  A    between atoms: _509  and  _512
REMARK  224  A    between atoms: _512  and  _513
REMARK  225  A    between atoms: _516  and  _518
REMARK  226  A    between atoms: _518  and  _519
REMARK  227  A    between atoms: _518  and  _521
REMARK  228  A    between atoms: _521  and  _522
REMARK  229  A    between atoms: _522  and  _523
REMARK  230  A    between atoms: _523  and  _524
REMARK  231  A    between atoms: _533  and  _535
REMARK  232  A    between atoms: _535  and  _536
REMARK  233  A    between atoms: _535  and  _538
REMARK  234  A    between atoms: _538  and  _539
REMARK                            x       y       z     vdW  Elec       q    Type
REMARK                         _______ _______ _______ _____ _____    ______ ____
ROOT
ATOM      1  CA  ASN A   4       2.086  28.968  15.853  0.00  0.00    +0.158 C 
ENDROOT
BRANCH   1   2
ATOM      2  C   ASN A   4       2.902  30.260  15.843  0.00  0.00    +0.241 C 
ATOM      3  O   ASN A   4       2.362  31.356  16.024  0.00  0.00    -0.273 OA
ATOM      4  N   LEU A   5       4.208  30.118  15.638  0.00  0.00    -0.297 N 
ATOM      5  H   LEU A   5       4.595  29.159  15.523  0.00  0.00    +0.150 HD
BRANCH   4   6
ATOM      6  CA  LEU A   5       5.118  31.254  15.568  0.00  0.00    +0.149 C 
BRANCH   6   7
ATOM      7  C   LEU A   5       5.779  31.200  14.188  0.00  0.00    +0.241 C 
ATOM      8  O   LEU A   5       6.566  30.295  13.889  0.00  0.00    -0.273 OA
ATOM      9  N   LEU A   6       5.447  32.174  13.347  0.00  0.00    -0.297 N 
ATOM     10  H   LEU A   6       4.804  32.925  13.669  0.00  0.00    +0.150 HD
BRANCH   9  11
ATOM     11  CA  LEU A   6       5.961  32.215  11.987  0.00  0.00    +0.149 C 
BRANCH  11  12
ATOM     12  C   LEU A   6       7.093  33.203  11.822  0.00  0.00    +0.241 C 
ATOM     13  O   LEU A   6       7.079  34.282  12.409  0.00  0.00    -0.273 OA
ATOM     14  N   ILE A   7       8.074  32.828  11.010  0.00  0.00    -0.298 N 
ATOM     15  H   ILE A   7       8.007  31.917  10.513  0.00  0.00    +0.150 HD
BRANCH  14  16
ATOM     16  CA  ILE A   7       9.243  33.673  10.805  0.00  0.00    +0.137 C 
BRANCH  16  17
ATOM     17  CB  ILE A   7      10.490  33.014  11.425  0.00  0.00    +0.026 C 
ATOM     18  CG2 ILE A   7      10.293  32.856  12.930  0.00  0.00    +0.002 C 
BRANCH  17  19
ATOM     19  CG1 ILE A   7      10.741  31.649  10.764  0.00  0.00    +0.002 C 
ATOM     20  CD1 ILE A   7      12.040  30.961  11.204  0.00  0.00    +0.000 C 
ENDBRANCH  17  19
ENDBRANCH  16  17
BRANCH  16  21
ATOM     21  C   ILE A   7       9.539  33.960   9.338  0.00  0.00    +0.227 C 
ATOM     22  O   ILE A   7       9.113  33.223   8.452  0.00  0.00    -0.286 OA
ENDBRANCH  16  21
ENDBRANCH  14  16
ENDBRANCH  11  12
BRANCH  11  23
ATOM     23  CB  LEU A   6       4.821  32.543  11.024  0.00  0.00    +0.029 C 
BRANCH  23  24
ATOM     24  CG  LEU A   6       3.641  31.576  11.182  0.00  0.00    +0.002 C 
ATOM     25  CD2 LEU A   6       4.108  30.142  10.987  0.00  0.00    +0.000 C 
ATOM     26  CD1 LEU A   6       2.569  31.929  10.176  0.00  0.00    +0.000 C 
ENDBRANCH  23  24
ENDBRANCH  11  23
ENDBRANCH   9  11
ENDBRANCH   6   7
BRANCH   6  27
ATOM     27  CB  LEU A   5       6.163  31.173  16.689  0.00  0.00    +0.029 C 
BRANCH  27  28
ATOM     28  CG  LEU A   5       5.578  31.150  18.109  0.00  0.00    +0.002 C 
ATOM     29  CD2 LEU A   5       6.696  31.043  19.148  0.00  0.00    +0.000 C 
ATOM     30  CD1 LEU A   5       4.754  32.410  18.348  0.00  0.00    +0.000 C 
ENDBRANCH  27  28
ENDBRANCH   6  27
ENDBRANCH   4   6
ENDBRANCH   1   2
BRANCH   1  32
ATOM     31  C   GLN A   3       3.290  27.077  14.927  0.00  0.00    +0.241 C 
ATOM     32  N   ASN A   4       2.945  27.792  15.994  0.00  0.00    -0.297 N 
ATOM     33  H   ASN A   4       3.288  27.513  16.935  0.00  0.00    +0.150 HD
ATOM     34  O   GLN A   3       2.880  27.331  13.797  0.00  0.00    -0.273 OA
BRANCH  31  35
ATOM     35  CA  GLN A   3       4.224  25.891  15.149  0.00  0.00    +0.149 C 
BRANCH  35  37
ATOM     36  C   PRO A   2       5.806  26.819  16.724  0.00  0.00    +0.241 C 
ATOM     37  N   GLN A   3       4.869  25.916  16.456  0.00  0.00    -0.297 N 
ATOM     38  H   GLN A   3       4.594  25.224  17.182  0.00  0.00    +0.150 HD
ATOM     39  O   PRO A   2       6.158  27.674  15.908  0.00  0.00    -0.273 OA
BRANCH  36  45
ATOM     40  C   LYS A   1       4.383  27.221  19.364  0.00  0.00    +0.241 C 
ATOM     41  N   PRO A   2       5.533  26.547  19.238  0.00  0.00    -0.272 N 
ATOM     42  CD  PRO A   2       6.059  25.515  20.151  0.00  0.00    +0.094 C 
ATOM     43  CG  PRO A   2       7.511  25.435  19.740  0.00  0.00    +0.024 C 
ATOM     44  CB  PRO A   2       7.412  25.579  18.240  0.00  0.00    +0.031 C 
ATOM     45  CA  PRO A   2       6.446  26.752  18.108  0.00  0.00    +0.152 C 
ATOM     46  O   LYS A   1       4.024  28.056  18.533  0.00  0.00    -0.273 OA
BRANCH  40  47
ATOM     47  CA  LYS A   1       3.522  26.927  20.589  0.00  0.00    +0.145 C 
BRANCH  47  48
ATOM     48  N   LYS A   1       2.653  28.086  20.750  0.00  0.00    -0.238 NA
ATOM     49  H   LYS A   1       2.604  28.775  19.972  0.00  0.00    +0.142 HD
ENDBRANCH  47  48
BRANCH  47  50
ATOM     50  CB  LYS A   1       2.710  25.635  20.402  0.00  0.00    +0.026 C 
BRANCH  50  51
ATOM     51  CG  LYS A   1       1.588  25.711  19.384  0.00  0.00    -0.000 C 
BRANCH  51  52
ATOM     52  CD  LYS A   1       0.795  24.404  19.373  0.00  0.00    -0.024 C 
BRANCH  52  53
ATOM     53  CE  LYS A   1      -0.436  24.509  18.485  0.00  0.00    -0.086 C 
BRANCH  53  54
ATOM     54  NZ  LYS A   1      -1.192  23.227  18.474  0.00  0.00    +0.380 N 
ATOM     55  HZ1 LYS A   1      -1.495  22.996  19.442  0.00  0.00    -0.089 HD
ATOM     56  HZ2 LYS A   1      -0.580  22.468  18.111  0.00  0.00    -0.089 HD
ATOM     57  HZ3 LYS A   1      -2.027  23.324  17.862  0.00  0.00    -0.089 HD
ENDBRANCH  53  54
ENDBRANCH  52  53
ENDBRANCH  51  52
ENDBRANCH  50  51
ENDBRANCH  47  50
ENDBRANCH  40  47
ENDBRANCH  36  45
ENDBRANCH  35  37
BRANCH  35  58
ATOM     58  CB  GLN A   3       3.458  24.583  14.960  0.00  0.00    +0.039 C 
BRANCH  58  59
ATOM     59  CG  GLN A   3       2.210  24.476  15.803  0.00  0.00    +0.087 C 
BRANCH  59  60
ATOM     60  CD  GLN A   3       1.718  23.045  15.914  0.00  0.00    +0.219 C 
ATOM     61  OE1 GLN A   3       2.365  22.205  16.543  0.00  0.00    -0.275 OA
ATOM     62  NE2 GLN A   3       0.575  22.758  15.293  0.00  0.00    -0.329 N 
ATOM     63 HE21 GLN A   3       0.193  21.791  15.327  0.00  0.00    +0.145 HD
ATOM     64 HE22 GLN A   3       0.064  23.501  14.774  0.00  0.00    +0.145 HD
ENDBRANCH  59  60
ENDBRANCH  58  59
ENDBRANCH  35  58
ENDBRANCH  31  35
ENDBRANCH   1  32
BRANCH   1  65
ATOM     65  CB  ASN A   4       1.028  29.017  16.961  0.00  0.00    +0.114 C 
BRANCH  65  66
ATOM     66  CG  ASN A   4      -0.132  28.081  16.691  0.00  0.00    +0.222 C 
ATOM     67  ND2 ASN A   4      -0.907  27.771  17.727  0.00  0.00    -0.329 N 
ATOM     68 HD21 ASN A   4      -0.695  28.157  18.669  0.00  0.00    +0.145 HD
ATOM     69 HD22 ASN A   4      -1.725  27.143  17.595  0.00  0.00    +0.145 HD
ATOM     70  OD1 ASN A   4      -0.338  27.652  15.555  0.00  0.00    -0.275 OA
ENDBRANCH  65  66
ENDBRANCH   1  65
TORSDOF 29
REMARK  Name = ../refined-set-2016/2fvd/2fvd_pocket.pdb
REMARK  234 active torsions:
REMARK  status: ('A' for Active; 'I' for Inactive)
REMARK    1  A    between atoms: _1  and  _3
REMARK    2  A    between atoms: _3  and  _4
REMARK    3  A    between atoms: _3  and  _6
REMARK    4  A    between atoms: _6  and  _7
REMARK    5  A    between atoms: _7  and  _8
REMARK    6  A    between atoms: _11  and  _13
REMARK    7  A    between atoms: _13  and  _14
REMARK    8  A    between atoms: _13  and  _16
REMARK    9  A    between atoms: _16  and  _17
REMARK   10  A    between atoms: _17  and  _18
REMARK   11  A    between atoms: _18  and  _19
REMARK   12  A    between atoms: _19  and  _20
REMARK   13  A    between atoms: _24  and  _26
REMARK   14  A    between atoms: _26  and  _27
REMARK   15  A    between atoms: _26  and  _29
REMARK   16  A    between atoms: _29  and  _30
REMARK   17  A    between atoms: _33  and  _35
REMARK   18  A    between atoms: _35  and  _36
REMARK   19  A    between atoms: _38  and  _40
REMARK   20  A    between atoms: _40  and  _41
REMARK   21  A    between atoms: _40  and  _43
REMARK   22  A    between atoms: _43  and  _44
REMARK   23  A    between atoms: _44  and  _45
REMARK   24  A    between atoms: _48  and  _50
REMARK   25  A    between atoms: _50  and  _51
REMARK   26  A    between atoms: _53  and  _55
REMARK   27  A    between atoms: _55  and  _56
REMARK   28  A    between atoms: _55  and  _58
REMARK   29  A    between atoms: _58  and  _59
REMARK   30  A    between atoms: _62  and  _64
REMARK   31  A    between atoms: _64  and  _65
REMARK   32  A    between atoms: _64  and  _67
REMARK   33  A    between atoms: _67  and  _68
REMARK   34  A    between atoms: _73  and  _74
REMARK   35  A    between atoms: _76  and  _78
REMARK   36  A    between atoms: _78  and  _79
REMARK   37  A    between atoms: _81  and  _83
REMARK   38  A    between atoms: _83  and  _84
REMARK   39  A    between atoms: _83  and  _86
REMARK   40  A    between atoms: _89  and  _91
REMARK   41  A    between atoms: _91  and  _92
REMARK   42  A    between atoms: _91  and  _94
REMARK   43  A    between atoms: _97  and  _99
REMARK   44  A    between atoms: _99  and  _100
REMARK   45  A    between atoms: _99  and  _102
REMARK   46  A    between atoms: _102  and  _103
REMARK   47  A    between atoms: _108  and  _109
REMARK   48  A    between atoms: _111  and  _113
REMARK   49  A    between atoms: _113  and  _114
REMARK   50  A    between atoms: _113  and  _116
REMARK   51  A    between atoms: _116  and  _117
REMARK   52  A    between atoms: _117  and  _118
REMARK   53  A    between atoms: _118  and  _119
REMARK   54  A    between atoms: _119  and  _120
REMARK   55  A    between atoms: _124  and  _126
REMARK   56  A    between atoms: _126  and  _127
REMARK   57  A    between atoms: _126  and  _129
REMARK   58  A    between atoms: _132  and  _134
REMARK   59  A    between atoms: _134  and  _135
REMARK   60  A    between atoms: _134  and  _137
REMARK   61  A    between atoms: _140  and  _142
REMARK   62  A    between atoms: _142  and  _143
REMARK   63  A    between atoms: _146  and  _148
REMARK   64  A    between atoms: _148  and  _149
REMARK   65  A    between atoms: _148  and  _151
REMARK   66  A    between atoms: _151  and  _152
REMARK   67  A    between atoms: _155  and  _157
REMARK   68  A    between atoms: _157  and  _158
REMARK   69  A    between atoms: _157  and  _160
REMARK   70  A    between atoms: _160  and  _161
REMARK   71  A    between atoms: _161  and  _162
REMARK   72  A    between atoms: _162  and  _163
REMARK   73  A    between atoms: _163  and  _164
REMARK   74  A    between atoms: _168  and  _170
REMARK   75  A    between atoms: _170  and  _171
REMARK   76  A    between atoms: _170  and  _173
REMARK   77  A    between atoms: _173  and  _174
REMARK   78  A    between atoms: _174  and  _175
REMARK   79  A    between atoms: _175  and  _176
REMARK   80  A    between atoms: _176  and  _177
REMARK   81  A    between atoms: _181  and  _183
REMARK   82  A    between atoms: _183  and  _184
REMARK   83  A    between atoms: _183  and  _186
REMARK   84  A    between atoms: _186  and  _187
REMARK   85  A    between atoms: _190  and  _192
REMARK   86  A    between atoms: _192  and  _193
REMARK   87  A    between atoms: _192  and  _195
REMARK   88  A    between atoms: _198  and  _200
REMARK   89  A    between atoms: _200  and  _201
REMARK   90  A    between atoms: _200  and  _203
REMARK   91  A    between atoms: _203  and  _204
REMARK   92  A    between atoms: _204  and  _205
REMARK   93  A    between atoms: _205  and  _206
REMARK   94  A    between atoms: _206  and  _207
REMARK   95  A    between atoms: _211  and  _213
REMARK   96  A    between atoms: _213  and  _214
REMARK   97  A    between atoms: _213  and  _216
REMARK   98  A    between atoms: _216  and  _217
REMARK   99  A    between atoms: _220  and  _222
REMARK  100  A    between atoms: _222  and  _223
REMARK  101  A    between atoms: _222  and  _225
REMARK  102  A    between atoms: _225  and  _226
REMARK  103  A    between atoms: _229  and  _231
REMARK  104  A    between atoms: _231  and  _232
REMARK  105  A    between atoms: _231  and  _234
REMARK  106  A    between atoms: _234  and  _235
REMARK  107  A    between atoms: _238  and  _240
REMARK  108  A    between atoms: _240  and  _241
REMARK  109  A    between atoms: _240  and  _243
REMARK  110  A    between atoms: _246  and  _248
REMARK  111  A    between atoms: _248  and  _249
REMARK  112  A    between atoms: _248  and  _251
REMARK  113  A    between atoms: _251  and  _252
REMARK  114  A    between atoms: _258  and  _260
REMARK  115  A    between atoms: _260  and  _261
REMARK  116  A    between atoms: _260  and  _263
REMARK  117  A    between atoms: _263  and  _264
REMARK  118  A    between atoms: _264  and  _265
REMARK  119  A    between atoms: _268  and  _270
REMARK  120  A    between atoms: _270  and  _271
REMARK  121  A    between atoms: _270  and  _273
REMARK  122  A    between atoms: _273  and  _274
REMARK  123  A    between atoms: _280  and  _282
REMARK  124  A    between atoms: _282  and  _283
REMARK  125  A    between atoms: _282  and  _285
REMARK  126  A    between atoms: _285  and  _286
REMARK  127  A    between atoms: _289  and  _291
REMARK  128  A    between atoms: _291  and  _292
REMARK  129  A    between atoms: _291  and  _294
REMARK  130  A    between atoms: _294  and  _295
REMARK  131  A    between atoms: _300  and  _302
REMARK  132  A    between atoms: _302  and  _303
REMARK  133  A    between atoms: _302  and  _305
REMARK  134  A    between atoms: _305  and  _306
REMARK  135  A    between atoms: _306  and  _307
REMARK  136  A    between atoms: _312  and  _314
REMARK  137  A    between atoms: _314  and  _315
REMARK  138  A    between atoms: _314  and  _317
REMARK  139  A    between atoms: _317  and  _318
REMARK  140  A    between atoms: _321  and  _323
REMARK  141  A    between atoms: _323  and  _324
REMARK  142  A    between atoms: _323  and  _326
REMARK  143  A    between atoms: _326  and  _327
REMARK  144  A    between atoms: _330  and  _332
REMARK  145  A    between atoms: _332  and  _333
REMARK  146  A    between atoms: _332  and  _335
REMARK  147  A    between atoms: _335  and  _336
REMARK  148  A    between atoms: _336  and  _337
REMARK  149  A    between atoms: _337  and  _338
REMARK  150  A    between atoms: _338  and  _339
REMARK  151  A    between atoms: _343  and  _345
REMARK  152  A    between atoms: _345  and  _346
REMARK  153  A    between atoms: _345  and  _348
REMARK  154  A    between atoms: _348  and  _349
REMARK  155  A    between atoms: _349  and  _350
REMARK  156  A    between atoms: _350  and  _351
REMARK  157  A    between atoms: _351  and  _352
REMARK  158  A    between atoms: _356  and  _358
REMARK  159  A    between atoms: _358  and  _359
REMARK  160  A    between atoms: _358  and  _361
REMARK  161  A    between atoms: _361  and  _362
REMARK  162  A    between atoms: _368  and  _370
REMARK  163  A    between atoms: _370  and  _371
REMARK  164  A    between atoms: _370  and  _373
REMARK  165  A    between atoms: _373  and  _374
REMARK  166  A    between atoms: _374  and  _375
REMARK  167  A    between atoms: _377  and  _379
REMARK  168  A    between atoms: _379  and  _380
REMARK  169  A    between atoms: _379  and  _382
REMARK  170  A    between atoms: _382  and  _383
REMARK  171  A    between atoms: _388  and  _390
REMARK  172  A    between atoms: _390  and  _391
REMARK  173  A    between atoms: _390  and  _393
REMARK  174  A    between atoms: _393  and  _394
REMARK  175  A    between atoms: _394  and  _395
REMARK  176  A    between atoms: _395  and  _396
REMARK  177  A    between atoms: _396  and  _397
REMARK  178  A    between atoms: _402  and  _403
REMARK  179  A    between atoms: _408  and  _410
REMARK  180  A    between atoms: _410  and  _411
REMARK  181  A    between atoms: _410  and  _413
REMARK  182  A    between atoms: _413  and  _414
REMARK  183  A    between atoms: _414  and  _415
REMARK  184  A    between atoms: _420  and  _422
REMARK  185  A    between atoms: _422  and  _423
REMARK  186  A    between atoms: _422  and  _425
REMARK  187  A    between atoms: _425  and  _426
REMARK  188  A    between atoms: _431  and  _433
REMARK  189  A    between atoms: _433  and  _434
REMARK  190  A    between atoms: _433  and  _436
REMARK  191  A    between atoms: _436  and  _437
REMARK  192  A    between atoms: _440  and  _442
REMARK  193  A    between atoms: _442  and  _443
REMARK  194  A    between atoms: _442  and  _445
REMARK  195  A    between atoms: _445  and  _446
REMARK  196  A    between atoms: _449  and  _451
REMARK  197  A    between atoms: _451  and  _452
REMARK  198  A    between atoms: _451  and  _454
REMARK  199  A    between atoms: _454  and  _455
REMARK  200  A    between atoms: _458  and  _460
REMARK  201  A    between atoms: _460  and  _461
REMARK  202  A    between atoms: _460  and  _463
REMARK  203  A    between atoms: _463  and  _464
REMARK  204  A    between atoms: _464  and  _465
REMARK  205  A    between atoms: _465  and  _466
REMARK  206  A    between atoms: _466  and  _467
REMARK  207  A    between atoms: _471  and  _473
REMARK  208  A    between atoms: _473  and  _474
REMARK  209  A    between atoms: _473  and  _476
REMARK  210  A    between atoms: _476  and  _477
REMARK  211  A    between atoms: _480  and  _482
REMARK  212  A    between atoms: _482  and  _483
REMARK  213  A    between atoms: _486  and  _488
REMARK  214  A    between atoms: _488  and  _489
REMARK  215  A    between atoms: _488  and  _491
REMARK  216  A    between atoms: _491  and  _492
REMARK  217  A    between atoms: _495  and  _497
REMARK  218  A    between atoms: _497  and  _498
REMARK  219  A    between atoms: _497  and  _500
REMARK  220  A    between atoms: _500  and  _501
REMARK  221  A    between atoms: _507  and  _509
REMARK  222  A    between atoms: _509  and  _510
REMARK  223  A    between atoms: _509  and  _512
REMARK  224  A    between atoms: _512  and  _513
REMARK  225  A    between atoms: _516  and  _518
REMARK  226  A    between atoms: _518  and  _519
REMARK  227  A    between atoms: _518  and  _521
REMARK  228  A    between atoms: _521  and  _522
REMARK  229  A    between atoms: _522  and  _523
REMARK  230  A    between atoms: _523  and  _524
REMARK  231  A    between atoms: _533  and  _535
REMARK  232  A    between atoms: _535  and  _536
REMARK  233  A    between atoms: _535  and  _538
REMARK  234  A    between atoms: _538  and  _539
REMARK                            x       y       z     vdW  Elec       q    Type
REMARK                         _______ _______ _______ _____ _____    ______ ____
ROOT
ATOM      1  CA  ALA A   3      -0.362  33.053  14.430  0.00  0.00    +0.149 C 
ATOM      2  CB  ALA A   3       0.321  32.311  13.298  0.00  0.00    +0.031 C 
ENDROOT
BRANCH   1   4
ATOM      3  C   LEU A   2       0.930  34.825  15.477  0.00  0.00    +0.241 C 
ATOM      4  N   ALA A   3       0.634  33.534  15.377  0.00  0.00    -0.297 N 
ATOM      5  H   ALA A   3       1.125  32.851  15.989  0.00  0.00    +0.150 HD
ATOM      6  O   LEU A   2       0.373  35.698  14.805  0.00  0.00    -0.273 OA
BRANCH   3   7
ATOM      7  CA  LEU A   2       2.005  35.194  16.493  0.00  0.00    +0.149 C 
BRANCH   7   9
ATOM      8  C   LYS A   1       3.923  35.549  15.002  0.00  0.00    +0.238 C 
ATOM      9  N   LEU A   2       2.997  36.031  15.827  0.00  0.00    -0.297 N 
ATOM     10  H   LEU A   2       2.980  37.055  16.006  0.00  0.00    +0.150 HD
ATOM     11  O   LYS A   1       4.033  34.352  14.726  0.00  0.00    -0.274 OA
BRANCH   8  12
ATOM     12  CA  LYS A   1       4.846  36.592  14.385  0.00  0.00    +0.145 C 
BRANCH  12  13
ATOM     13  N   LYS A   1       6.224  36.163  14.157  0.00  0.00    -0.238 NA
ATOM     14  H   LYS A   1       6.407  35.251  13.693  0.00  0.00    +0.142 HD
ENDBRANCH  12  13
BRANCH  12  15
ATOM     15  CB  LYS A   1       4.241  37.071  13.053  0.00  0.00    +0.026 C 
BRANCH  15  16
ATOM     16  CG  LYS A   1       5.129  38.055  12.293  0.00  0.00    -0.000 C 
BRANCH  16  17
ATOM     17  CD  LYS A   1       4.384  38.727  11.134  0.00  0.00    -0.024 C 
BRANCH  17  18
ATOM     18  CE  LYS A   1       5.294  39.688  10.374  0.00  0.00    -0.086 C 
BRANCH  18  19
ATOM     19  NZ  LYS A   1       4.533  40.542   9.417  0.00  0.00    +0.380 N 
ATOM     20  HZ1 LYS A   1       3.831  41.104   9.939  0.00  0.00    -0.089 HD
ATOM     21  HZ2 LYS A   1       5.191  41.179   8.923  0.00  0.00    -0.089 HD
ATOM     22  HZ3 LYS A   1       4.049  39.937   8.724  0.00  0.00    -0.089 HD
ENDBRANCH  18  19
ENDBRANCH  17  18
ENDBRANCH  16  17
ENDBRANCH  15  16
ENDBRANCH  12  15
ENDBRANCH   8  12
ENDBRANCH   7   9
BRANCH   7  23
ATOM     23  CB  LEU A   2       1.362  35.967  17.650  0.00  0.00    +0.029 C 
BRANCH  23  24
ATOM     24  CG  LEU A   2       2.321  36.438  18.747  0.00  0.00    +0.002 C 
ATOM     25  CD2 LEU A   2       2.686  35.260  19.641  0.00  0.00    +0.000 C 
ATOM     26  CD1 LEU A   2       1.682  37.569  19.564  0.00  0.00    +0.000 C 
ENDBRANCH  23  24
ENDBRANCH   7  23
ENDBRANCH   3   7
ENDBRANCH   1   4
BRANCH   1  27
ATOM     27  C   ALA A   3      -1.400  32.149  15.078  0.00  0.00    +0.241 C 
ATOM     28  O   ALA A   3      -1.184  31.607  16.164  0.00  0.00    -0.273 OA
ATOM     29  N   ASP A   4      -2.521  31.992  14.379  0.00  0.00    -0.297 N 
ATOM     30  H   ASP A   4      -2.605  32.489  13.469  0.00  0.00    +0.150 HD
BRANCH  29  31
ATOM     31  CA  ASP A   4      -3.639  31.163  14.816  0.00  0.00    +0.160 C 
BRANCH  31  32
ATOM     32  C   ASP A   4      -4.178  31.502  16.201  0.00  0.00    +0.241 C 
ATOM     33  O   ASP A   4      -4.253  30.639  17.077  0.00  0.00    -0.273 OA
ATOM     34  N   PHE A   5      -4.552  32.761  16.397  0.00  0.00    -0.298 N 
ATOM     35  H   PHE A   5      -4.438  33.458  15.633  0.00  0.00    +0.150 HD
BRANCH  34  36
ATOM     36  CA  PHE A   5      -5.121  33.174  17.672  0.00  0.00    +0.141 C 
BRANCH  36  37
ATOM     37  C   PHE A   5      -6.356  32.316  17.918  0.00  0.00    +0.227 C 
ATOM     38  O   PHE A   5      -7.142  32.079  16.998  0.00  0.00    -0.286 OA
ENDBRANCH  36  37
BRANCH  36  39
ATOM     39  CB  PHE A   5      -5.519  34.653  17.639  0.00  0.00    +0.054 C 
BRANCH  39  40
ATOM     40  CG  PHE A   5      -4.411  35.585  18.030  0.00  0.00    -0.020 A 
ATOM     41  CD2 PHE A   5      -4.429  36.217  19.273  0.00  0.00    -0.004 A 
ATOM     42  CE2 PHE A   5      -3.392  37.062  19.665  0.00  0.00    -0.000 A 
ATOM     43  CZ  PHE A   5      -2.320  37.283  18.805  0.00  0.00    -0.000 A 
ATOM     44  CE1 PHE A   5      -2.292  36.659  17.561  0.00  0.00    -0.000 A 
ATOM     45  CD1 PHE A   5      -3.340  35.812  17.180  0.00  0.00    -0.004 A 
ENDBRANCH  39  40
ENDBRANCH  36  39
ENDBRANCH  34  36
ENDBRANCH  31  32
BRANCH  31  46
ATOM     46  CB  ASP A   4      -3.271  29.673  14.759  0.00  0.00    +0.143 C 
BRANCH  46  47
ATOM     47  CG  ASP A   4      -4.505  28.770  14.679  0.00  0.00    +0.367 C 
ATOM     48  OD2 ASP A   4      -4.506  27.672  15.273  0.00  0.00    -0.246 OA
ATOM     49  OD1 ASP A   4      -5.474  29.155  14.001  0.00  0.00    -0.246 OA
ENDBRANCH  46  47
ENDBRANCH  31  46
ENDBRANCH  29  31
ENDBRANCH   1  27
TORSDOF 21
REMARK  Name = ../refined-set-2016/2fvd/2fvd_pocket.pdb
REMARK  234 active torsions:
REMARK  status: ('A' for Active; 'I' for Inactive)
REMARK    1  A    between atoms: _1  and  _3
REMARK    2  A    between atoms: _3  and  _4
REMARK    3  A    between atoms: _3  and  _6
REMARK    4  A    between atoms: _6  and  _7
REMARK    5  A    between atoms: _7  and  _8
REMARK    6  A    between atoms: _11  and  _13
REMARK    7  A    between atoms: _13  and  _14
REMARK    8  A    between atoms: _13  and  _16
REMARK    9  A    between atoms: _16  and  _17
REMARK   10  A    between atoms: _17  and  _18
REMARK   11  A    between atoms: _18  and  _19
REMARK   12  A    between atoms: _19  and  _20
REMARK   13  A    between atoms: _24  and  _26
REMARK   14  A    between atoms: _26  and  _27
REMARK   15  A    between atoms: _26  and  _29
REMARK   16  A    between atoms: _29  and  _30
REMARK   17  A    between atoms: _33  and  _35
REMARK   18  A    between atoms: _35  and  _36
REMARK   19  A    between atoms: _38  and  _40
REMARK   20  A    between atoms: _40  and  _41
REMARK   21  A    between atoms: _40  and  _43
REMARK   22  A    between atoms: _43  and  _44
REMARK   23  A    between atoms: _44  and  _45
REMARK   24  A    between atoms: _48  and  _50
REMARK   25  A    between atoms: _50  and  _51
REMARK   26  A    between atoms: _53  and  _55
REMARK   27  A    between atoms: _55  and  _56
REMARK   28  A    between atoms: _55  and  _58
REMARK   29  A    between atoms: _58  and  _59
REMARK   30  A    between atoms: _62  and  _64
REMARK   31  A    between atoms: _64  and  _65
REMARK   32  A    between atoms: _64  and  _67
REMARK   33  A    between atoms: _67  and  _68
REMARK   34  A    between atoms: _73  and  _74
REMARK   35  A    between atoms: _76  and  _78
REMARK   36  A    between atoms: _78  and  _79
REMARK   37  A    between atoms: _81  and  _83
REMARK   38  A    between atoms: _83  and  _84
REMARK   39  A    between atoms: _83  and  _86
REMARK   40  A    between atoms: _89  and  _91
REMARK   41  A    between atoms: _91  and  _92
REMARK   42  A    between atoms: _91  and  _94
REMARK   43  A    between atoms: _97  and  _99
REMARK   44  A    between atoms: _99  and  _100
REMARK   45  A    between atoms: _99  and  _102
REMARK   46  A    between atoms: _102  and  _103
REMARK   47  A    between atoms: _108  and  _109
REMARK   48  A    between atoms: _111  and  _113
REMARK   49  A    between atoms: _113  and  _114
REMARK   50  A    between atoms: _113  and  _116
REMARK   51  A    between atoms: _116  and  _117
REMARK   52  A    between atoms: _117  and  _118
REMARK   53  A    between atoms: _118  and  _119
REMARK   54  A    between atoms: _119  and  _120
REMARK   55  A    between atoms: _124  and  _126
REMARK   56  A    between atoms: _126  and  _127
REMARK   57  A    between atoms: _126  and  _129
REMARK   58  A    between atoms: _132  and  _134
REMARK   59  A    between atoms: _134  and  _135
REMARK   60  A    between atoms: _134  and  _137
REMARK   61  A    between atoms: _140  and  _142
REMARK   62  A    between atoms: _142  and  _143
REMARK   63  A    between atoms: _146  and  _148
REMARK   64  A    between atoms: _148  and  _149
REMARK   65  A    between atoms: _148  and  _151
REMARK   66  A    between atoms: _151  and  _152
REMARK   67  A    between atoms: _155  and  _157
REMARK   68  A    between atoms: _157  and  _158
REMARK   69  A    between atoms: _157  and  _160
REMARK   70  A    between atoms: _160  and  _161
REMARK   71  A    between atoms: _161  and  _162
REMARK   72  A    between atoms: _162  and  _163
REMARK   73  A    between atoms: _163  and  _164
REMARK   74  A    between atoms: _168  and  _170
REMARK   75  A    between atoms: _170  and  _171
REMARK   76  A    between atoms: _170  and  _173
REMARK   77  A    between atoms: _173  and  _174
REMARK   78  A    between atoms: _174  and  _175
REMARK   79  A    between atoms: _175  and  _176
REMARK   80  A    between atoms: _176  and  _177
REMARK   81  A    between atoms: _181  and  _183
REMARK   82  A    between atoms: _183  and  _184
REMARK   83  A    between atoms: _183  and  _186
REMARK   84  A    between atoms: _186  and  _187
REMARK   85  A    between atoms: _190  and  _192
REMARK   86  A    between atoms: _192  and  _193
REMARK   87  A    between atoms: _192  and  _195
REMARK   88  A    between atoms: _198  and  _200
REMARK   89  A    between atoms: _200  and  _201
REMARK   90  A    between atoms: _200  and  _203
REMARK   91  A    between atoms: _203  and  _204
REMARK   92  A    between atoms: _204  and  _205
REMARK   93  A    between atoms: _205  and  _206
REMARK   94  A    between atoms: _206  and  _207
REMARK   95  A    between atoms: _211  and  _213
REMARK   96  A    between atoms: _213  and  _214
REMARK   97  A    between atoms: _213  and  _216
REMARK   98  A    between atoms: _216  and  _217
REMARK   99  A    between atoms: _220  and  _222
REMARK  100  A    between atoms: _222  and  _223
REMARK  101  A    between atoms: _222  and  _225
REMARK  102  A    between atoms: _225  and  _226
REMARK  103  A    between atoms: _229  and  _231
REMARK  104  A    between atoms: _231  and  _232
REMARK  105  A    between atoms: _231  and  _234
REMARK  106  A    between atoms: _234  and  _235
REMARK  107  A    between atoms: _238  and  _240
REMARK  108  A    between atoms: _240  and  _241
REMARK  109  A    between atoms: _240  and  _243
REMARK  110  A    between atoms: _246  and  _248
REMARK  111  A    between atoms: _248  and  _249
REMARK  112  A    between atoms: _248  and  _251
REMARK  113  A    between atoms: _251  and  _252
REMARK  114  A    between atoms: _258  and  _260
REMARK  115  A    between atoms: _260  and  _261
REMARK  116  A    between atoms: _260  and  _263
REMARK  117  A    between atoms: _263  and  _264
REMARK  118  A    between atoms: _264  and  _265
REMARK  119  A    between atoms: _268  and  _270
REMARK  120  A    between atoms: _270  and  _271
REMARK  121  A    between atoms: _270  and  _273
REMARK  122  A    between atoms: _273  and  _274
REMARK  123  A    between atoms: _280  and  _282
REMARK  124  A    between atoms: _282  and  _283
REMARK  125  A    between atoms: _282  and  _285
REMARK  126  A    between atoms: _285  and  _286
REMARK  127  A    between atoms: _289  and  _291
REMARK  128  A    between atoms: _291  and  _292
REMARK  129  A    between atoms: _291  and  _294
REMARK  130  A    between atoms: _294  and  _295
REMARK  131  A    between atoms: _300  and  _302
REMARK  132  A    between atoms: _302  and  _303
REMARK  133  A    between atoms: _302  and  _305
REMARK  134  A    between atoms: _305  and  _306
REMARK  135  A    between atoms: _306  and  _307
REMARK  136  A    between atoms: _312  and  _314
REMARK  137  A    between atoms: _314  and  _315
REMARK  138  A    between atoms: _314  and  _317
REMARK  139  A    between atoms: _317  and  _318
REMARK  140  A    between atoms: _321  and  _323
REMARK  141  A    between atoms: _323  and  _324
REMARK  142  A    between atoms: _323  and  _326
REMARK  143  A    between atoms: _326  and  _327
REMARK  144  A    between atoms: _330  and  _332
REMARK  145  A    between atoms: _332  and  _333
REMARK  146  A    between atoms: _332  and  _335
REMARK  147  A    between atoms: _335  and  _336
REMARK  148  A    between atoms: _336  and  _337
REMARK  149  A    between atoms: _337  and  _338
REMARK  150  A    between atoms: _338  and  _339
REMARK  151  A    between atoms: _343  and  _345
REMARK  152  A    between atoms: _345  and  _346
REMARK  153  A    between atoms: _345  and  _348
REMARK  154  A    between atoms: _348  and  _349
REMARK  155  A    between atoms: _349  and  _350
REMARK  156  A    between atoms: _350  and  _351
REMARK  157  A    between atoms: _351  and  _352
REMARK  158  A    between atoms: _356  and  _358
REMARK  159  A    between atoms: _358  and  _359
REMARK  160  A    between atoms: _358  and  _361
REMARK  161  A    between atoms: _361  and  _362
REMARK  162  A    between atoms: _368  and  _370
REMARK  163  A    between atoms: _370  and  _371
REMARK  164  A    between atoms: _370  and  _373
REMARK  165  A    between atoms: _373  and  _374
REMARK  166  A    between atoms: _374  and  _375
REMARK  167  A    between atoms: _377  and  _379
REMARK  168  A    between atoms: _379  and  _380
REMARK  169  A    between atoms: _379  and  _382
REMARK  170  A    between atoms: _382  and  _383
REMARK  171  A    between atoms: _388  and  _390
REMARK  172  A    between atoms: _390  and  _391
REMARK  173  A    between atoms: _390  and  _393
REMARK  174  A    between atoms: _393  and  _394
REMARK  175  A    between atoms: _394  and  _395
REMARK  176  A    between atoms: _395  and  _396
REMARK  177  A    between atoms: _396  and  _397
REMARK  178  A    between atoms: _402  and  _403
REMARK  179  A    between atoms: _408  and  _410
REMARK  180  A    between atoms: _410  and  _411
REMARK  181  A    between atoms: _410  and  _413
REMARK  182  A    between atoms: _413  and  _414
REMARK  183  A    between atoms: _414  and  _415
REMARK  184  A    between atoms: _420  and  _422
REMARK  185  A    between atoms: _422  and  _423
REMARK  186  A    between atoms: _422  and  _425
REMARK  187  A    between atoms: _425  and  _426
REMARK  188  A    between atoms: _431  and  _433
REMARK  189  A    between atoms: _433  and  _434
REMARK  190  A    between atoms: _433  and  _436
REMARK  191  A    between atoms: _436  and  _437
REMARK  192  A    between atoms: _440  and  _442
REMARK  193  A    between atoms: _442  and  _443
REMARK  194  A    between atoms: _442  and  _445
REMARK  195  A    between atoms: _445  and  _446
REMARK  196  A    between atoms: _449  and  _451
REMARK  197  A    between atoms: _451  and  _452
REMARK  198  A    between atoms: _451  and  _454
REMARK  199  A    between atoms: _454  and  _455
REMARK  200  A    between atoms: _458  and  _460
REMARK  201  A    between atoms: _460  and  _461
REMARK  202  A    between atoms: _460  and  _463
REMARK  203  A    between atoms: _463  and  _464
REMARK  204  A    between atoms: _464  and  _465
REMARK  205  A    between atoms: _465  and  _466
REMARK  206  A    between atoms: _466  and  _467
REMARK  207  A    between atoms: _471  and  _473
REMARK  208  A    between atoms: _473  and  _474
REMARK  209  A    between atoms: _473  and  _476
REMARK  210  A    between atoms: _476  and  _477
REMARK  211  A    between atoms: _480  and  _482
REMARK  212  A    between atoms: _482  and  _483
REMARK  213  A    between atoms: _486  and  _488
REMARK  214  A    between atoms: _488  and  _489
REMARK  215  A    between atoms: _488  and  _491
REMARK  216  A    between atoms: _491  and  _492
REMARK  217  A    between atoms: _495  and  _497
REMARK  218  A    between atoms: _497  and  _498
REMARK  219  A    between atoms: _497  and  _500
REMARK  220  A    between atoms: _500  and  _501
REMARK  221  A    between atoms: _507  and  _509
REMARK  222  A    between atoms: _509  and  _510
REMARK  223  A    between atoms: _509  and  _512
REMARK  224  A    between atoms: _512  and  _513
REMARK  225  A    between atoms: _516  and  _518
REMARK  226  A    between atoms: _518  and  _519
REMARK  227  A    between atoms: _518  and  _521
REMARK  228  A    between atoms: _521  and  _522
REMARK  229  A    between atoms: _522  and  _523
REMARK  230  A    between atoms: _523  and  _524
REMARK  231  A    between atoms: _533  and  _535
REMARK  232  A    between atoms: _535  and  _536
REMARK  233  A    between atoms: _535  and  _538
REMARK  234  A    between atoms: _538  and  _539
REMARK                            x       y       z     vdW  Elec       q    Type
REMARK                         _______ _______ _______ _____ _____    ______ ____
ROOT
ATOM      1  CA  ARG A   2      16.581  27.526   3.964  0.00  0.00    +0.149 C 
ENDROOT
BRANCH   1   3
ATOM      2  C   LEU A   1      16.835  29.621   5.164  0.00  0.00    +0.238 C 
ATOM      3  N   ARG A   2      16.550  28.325   5.179  0.00  0.00    -0.297 N 
ATOM      4  H   ARG A   2      16.299  27.870   6.080  0.00  0.00    +0.150 HD
ATOM      5  O   LEU A   1      17.191  30.223   4.149  0.00  0.00    -0.274 OA
BRANCH   2   6
ATOM      6  CA  LEU A   1      16.705  30.340   6.496  0.00  0.00    +0.145 C 
BRANCH   6   7
ATOM      7  N   LEU A   1      17.763  31.315   6.722  0.00  0.00    -0.238 NA
ATOM      8  H   LEU A   1      17.765  32.204   6.183  0.00  0.00    +0.142 HD
ENDBRANCH   6   7
BRANCH   6   9
ATOM      9  CB  LEU A   1      15.332  31.024   6.543  0.00  0.00    +0.026 C 
BRANCH   9  10
ATOM     10  CG  LEU A   1      14.943  31.814   7.794  0.00  0.00    +0.002 C 
ATOM     11  CD2 LEU A   1      14.943  30.904   9.011  0.00  0.00    +0.000 C 
ATOM     12  CD1 LEU A   1      13.567  32.435   7.581  0.00  0.00    +0.000 C 
ENDBRANCH   9  10
ENDBRANCH   6   9
ENDBRANCH   2   6
ENDBRANCH   1   3
BRANCH   1  13
ATOM     13  C   ARG A   2      15.120  27.295   3.603  0.00  0.00    +0.241 C 
ATOM     14  O   ARG A   2      14.412  26.557   4.287  0.00  0.00    -0.273 OA
ATOM     15  N   LEU A   3      14.670  27.961   2.544  0.00  0.00    -0.295 N 
ATOM     16  H   LEU A   3      15.326  28.576   2.021  0.00  0.00    +0.150 HD
BRANCH  15  17
ATOM     17  CA  LEU A   3      13.290  27.859   2.092  0.00  0.00    +0.176 C 
BRANCH  17  18
ATOM     18  C   LEU A   3      13.172  27.005   0.835  0.00  0.00    +0.382 C 
ATOM     19  OXT LEU A   3      12.151  26.305   0.708  0.00  0.00    -0.244 OA
ATOM     20  O   LEU A   3      14.086  27.066  -0.017  0.00  0.00    -0.244 OA
ENDBRANCH  17  18
BRANCH  17  21
ATOM     21  CB  LEU A   3      12.723  29.253   1.816  0.00  0.00    +0.031 C 
BRANCH  21  22
ATOM     22  CG  LEU A   3      12.832  30.283   2.944  0.00  0.00    +0.002 C 
ATOM     23  CD2 LEU A   3      12.047  29.803   4.165  0.00  0.00    +0.000 C 
ATOM     24  CD1 LEU A   3      12.310  31.626   2.455  0.00  0.00    +0.000 C 
ENDBRANCH  21  22
ENDBRANCH  17  21
ENDBRANCH  15  17
ENDBRANCH   1  13
BRANCH   1  25
ATOM     25  CB  ARG A   2      17.308  26.196   4.204  0.00  0.00    +0.033 C 
BRANCH  25  26
ATOM     26  CG  ARG A   2      16.804  25.386   5.389  0.00  0.00    +0.045 C 
BRANCH  26  27
ATOM     27  CD  ARG A   2      17.673  24.150   5.611  0.00  0.00    +0.174 C 
BRANCH  27  28
ATOM     28  NE  ARG A   2      17.198  23.321   6.717  0.00  0.00    -0.265 N 
ATOM     29  HE  ARG A   2      16.339  23.625   7.219  0.00  0.00    +0.259 HD
ATOM     30  CZ  ARG A   2      17.792  22.203   7.124  0.00  0.00    +0.342 C 
ATOM     31  NH2 ARG A   2      17.286  21.509   8.137  0.00  0.00    -0.292 N 
ATOM     32 HH21 ARG A   2      16.423  21.840   8.614  0.00  0.00    +0.255 HD
ATOM     33 HH22 ARG A   2      17.753  20.635   8.453  0.00  0.00    +0.255 HD
ATOM     34  NH1 ARG A   2      18.891  21.773   6.516  0.00  0.00    -0.292 N 
ATOM     35 HH11 ARG A   2      19.354  20.898   6.836  0.00  0.00    +0.255 HD
ATOM     36 HH12 ARG A   2      19.289  22.311   5.720  0.00  0.00    +0.255 HD
ENDBRANCH  27  28
ENDBRANCH  26  27
ENDBRANCH  25  26
ENDBRANCH   1  25
TORSDOF 14
REMARK  Name = ../refined-set-2016/2fvd/2fvd_pocket.pdb
REMARK  234 active torsions:
REMARK  status: ('A' for Active; 'I' for Inactive)
REMARK    1  A    between atoms: _1  and  _3
REMARK    2  A    between atoms: _3  and  _4
REMARK    3  A    between atoms: _3  and  _6
REMARK    4  A    between atoms: _6  and  _7
REMARK    5  A    between atoms: _7  and  _8
REMARK    6  A    between atoms: _11  and  _13
REMARK    7  A    between atoms: _13  and  _14
REMARK    8  A    between atoms: _13  and  _16
REMARK    9  A    between atoms: _16  and  _17
REMARK   10  A    between atoms: _17  and  _18
REMARK   11  A    between atoms: _18  and  _19
REMARK   12  A    between atoms: _19  and  _20
REMARK   13  A    between atoms: _24  and  _26
REMARK   14  A    between atoms: _26  and  _27
REMARK   15  A    between atoms: _26  and  _29
REMARK   16  A    between atoms: _29  and  _30
REMARK   17  A    between atoms: _33  and  _35
REMARK   18  A    between atoms: _35  and  _36
REMARK   19  A    between atoms: _38  and  _40
REMARK   20  A    between atoms: _40  and  _41
REMARK   21  A    between atoms: _40  and  _43
REMARK   22  A    between atoms: _43  and  _44
REMARK   23  A    between atoms: _44  and  _45
REMARK   24  A    between atoms: _48  and  _50
REMARK   25  A    between atoms: _50  and  _51
REMARK   26  A    between atoms: _53  and  _55
REMARK   27  A    between atoms: _55  and  _56
REMARK   28  A    between atoms: _55  and  _58
REMARK   29  A    between atoms: _58  and  _59
REMARK   30  A    between atoms: _62  and  _64
REMARK   31  A    between atoms: _64  and  _65
REMARK   32  A    between atoms: _64  and  _67
REMARK   33  A    between atoms: _67  and  _68
REMARK   34  A    between atoms: _73  and  _74
REMARK   35  A    between atoms: _76  and  _78
REMARK   36  A    between atoms: _78  and  _79
REMARK   37  A    between atoms: _81  and  _83
REMARK   38  A    between atoms: _83  and  _84
REMARK   39  A    between atoms: _83  and  _86
REMARK   40  A    between atoms: _89  and  _91
REMARK   41  A    between atoms: _91  and  _92
REMARK   42  A    between atoms: _91  and  _94
REMARK   43  A    between atoms: _97  and  _99
REMARK   44  A    between atoms: _99  and  _100
REMARK   45  A    between atoms: _99  and  _102
REMARK   46  A    between atoms: _102  and  _103
REMARK   47  A    between atoms: _108  and  _109
REMARK   48  A    between atoms: _111  and  _113
REMARK   49  A    between atoms: _113  and  _114
REMARK   50  A    between atoms: _113  and  _116
REMARK   51  A    between atoms: _116  and  _117
REMARK   52  A    between atoms: _117  and  _118
REMARK   53  A    between atoms: _118  and  _119
REMARK   54  A    between atoms: _119  and  _120
REMARK   55  A    between atoms: _124  and  _126
REMARK   56  A    between atoms: _126  and  _127
REMARK   57  A    between atoms: _126  and  _129
REMARK   58  A    between atoms: _132  and  _134
REMARK   59  A    between atoms: _134  and  _135
REMARK   60  A    between atoms: _134  and  _137
REMARK   61  A    between atoms: _140  and  _142
REMARK   62  A    between atoms: _142  and  _143
REMARK   63  A    between atoms: _146  and  _148
REMARK   64  A    between atoms: _148  and  _149
REMARK   65  A    between atoms: _148  and  _151
REMARK   66  A    between atoms: _151  and  _152
REMARK   67  A    between atoms: _155  and  _157
REMARK   68  A    between atoms: _157  and  _158
REMARK   69  A    between atoms: _157  and  _160
REMARK   70  A    between atoms: _160  and  _161
REMARK   71  A    between atoms: _161  and  _162
REMARK   72  A    between atoms: _162  and  _163
REMARK   73  A    between atoms: _163  and  _164
REMARK   74  A    between atoms: _168  and  _170
REMARK   75  A    between atoms: _170  and  _171
REMARK   76  A    between atoms: _170  and  _173
REMARK   77  A    between atoms: _173  and  _174
REMARK   78  A    between atoms: _174  and  _175
REMARK   79  A    between atoms: _175  and  _176
REMARK   80  A    between atoms: _176  and  _177
REMARK   81  A    between atoms: _181  and  _183
REMARK   82  A    between atoms: _183  and  _184
REMARK   83  A    between atoms: _183  and  _186
REMARK   84  A    between atoms: _186  and  _187
REMARK   85  A    between atoms: _190  and  _192
REMARK   86  A    between atoms: _192  and  _193
REMARK   87  A    between atoms: _192  and  _195
REMARK   88  A    between atoms: _198  and  _200
REMARK   89  A    between atoms: _200  and  _201
REMARK   90  A    between atoms: _200  and  _203
REMARK   91  A    between atoms: _203  and  _204
REMARK   92  A    between atoms: _204  and  _205
REMARK   93  A    between atoms: _205  and  _206
REMARK   94  A    between atoms: _206  and  _207
REMARK   95  A    between atoms: _211  and  _213
REMARK   96  A    between atoms: _213  and  _214
REMARK   97  A    between atoms: _213  and  _216
REMARK   98  A    between atoms: _216  and  _217
REMARK   99  A    between atoms: _220  and  _222
REMARK  100  A    between atoms: _222  and  _223
REMARK  101  A    between atoms: _222  and  _225
REMARK  102  A    between atoms: _225  and  _226
REMARK  103  A    between atoms: _229  and  _231
REMARK  104  A    between atoms: _231  and  _232
REMARK  105  A    between atoms: _231  and  _234
REMARK  106  A    between atoms: _234  and  _235
REMARK  107  A    between atoms: _238  and  _240
REMARK  108  A    between atoms: _240  and  _241
REMARK  109  A    between atoms: _240  and  _243
REMARK  110  A    between atoms: _246  and  _248
REMARK  111  A    between atoms: _248  and  _249
REMARK  112  A    between atoms: _248  and  _251
REMARK  113  A    between atoms: _251  and  _252
REMARK  114  A    between atoms: _258  and  _260
REMARK  115  A    between atoms: _260  and  _261
REMARK  116  A    between atoms: _260  and  _263
REMARK  117  A    between atoms: _263  and  _264
REMARK  118  A    between atoms: _264  and  _265
REMARK  119  A    between atoms: _268  and  _270
REMARK  120  A    between atoms: _270  and  _271
REMARK  121  A    between atoms: _270  and  _273
REMARK  122  A    between atoms: _273  and  _274
REMARK  123  A    between atoms: _280  and  _282
REMARK  124  A    between atoms: _282  and  _283
REMARK  125  A    between atoms: _282  and  _285
REMARK  126  A    between atoms: _285  and  _286
REMARK  127  A    between atoms: _289  and  _291
REMARK  128  A    between atoms: _291  and  _292
REMARK  129  A    between atoms: _291  and  _294
REMARK  130  A    between atoms: _294  and  _295
REMARK  131  A    between atoms: _300  and  _302
REMARK  132  A    between atoms: _302  and  _303
REMARK  133  A    between atoms: _302  and  _305
REMARK  134  A    between atoms: _305  and  _306
REMARK  135  A    between atoms: _306  and  _307
REMARK  136  A    between atoms: _312  and  _314
REMARK  137  A    between atoms: _314  and  _315
REMARK  138  A    between atoms: _314  and  _317
REMARK  139  A    between atoms: _317  and  _318
REMARK  140  A    between atoms: _321  and  _323
REMARK  141  A    between atoms: _323  and  _324
REMARK  142  A    between atoms: _323  and  _326
REMARK  143  A    between atoms: _326  and  _327
REMARK  144  A    between atoms: _330  and  _332
REMARK  145  A    between atoms: _332  and  _333
REMARK  146  A    between atoms: _332  and  _335
REMARK  147  A    between atoms: _335  and  _336
REMARK  148  A    between atoms: _336  and  _337
REMARK  149  A    between atoms: _337  and  _338
REMARK  150  A    between atoms: _338  and  _339
REMARK  151  A    between atoms: _343  and  _345
REMARK  152  A    between atoms: _345  and  _346
REMARK  153  A    between atoms: _345  and  _348
REMARK  154  A    between atoms: _348  and  _349
REMARK  155  A    between atoms: _349  and  _350
REMARK  156  A    between atoms: _350  and  _351
REMARK  157  A    between atoms: _351  and  _352
REMARK  158  A    between atoms: _356  and  _358
REMARK  159  A    between atoms: _358  and  _359
REMARK  160  A    between atoms: _358  and  _361
REMARK  161  A    between atoms: _361  and  _362
REMARK  162  A    between atoms: _368  and  _370
REMARK  163  A    between atoms: _370  and  _371
REMARK  164  A    between atoms: _370  and  _373
REMARK  165  A    between atoms: _373  and  _374
REMARK  166  A    between atoms: _374  and  _375
REMARK  167  A    between atoms: _377  and  _379
REMARK  168  A    between atoms: _379  and  _380
REMARK  169  A    between atoms: _379  and  _382
REMARK  170  A    between atoms: _382  and  _383
REMARK  171  A    between atoms: _388  and  _390
REMARK  172  A    between atoms: _390  and  _391
REMARK  173  A    between atoms: _390  and  _393
REMARK  174  A    between atoms: _393  and  _394
REMARK  175  A    between atoms: _394  and  _395
REMARK  176  A    between atoms: _395  and  _396
REMARK  177  A    between atoms: _396  and  _397
REMARK  178  A    between atoms: _402  and  _403
REMARK  179  A    between atoms: _408  and  _410
REMARK  180  A    between atoms: _410  and  _411
REMARK  181  A    between atoms: _410  and  _413
REMARK  182  A    between atoms: _413  and  _414
REMARK  183  A    between atoms: _414  and  _415
REMARK  184  A    between atoms: _420  and  _422
REMARK  185  A    between atoms: _422  and  _423
REMARK  186  A    between atoms: _422  and  _425
REMARK  187  A    between atoms: _425  and  _426
REMARK  188  A    between atoms: _431  and  _433
REMARK  189  A    between atoms: _433  and  _434
REMARK  190  A    between atoms: _433  and  _436
REMARK  191  A    between atoms: _436  and  _437
REMARK  192  A    between atoms: _440  and  _442
REMARK  193  A    between atoms: _442  and  _443
REMARK  194  A    between atoms: _442  and  _445
REMARK  195  A    between atoms: _445  and  _446
REMARK  196  A    between atoms: _449  and  _451
REMARK  197  A    between atoms: _451  and  _452
REMARK  198  A    between atoms: _451  and  _454
REMARK  199  A    between atoms: _454  and  _455
REMARK  200  A    between atoms: _458  and  _460
REMARK  201  A    between atoms: _460  and  _461
REMARK  202  A    between atoms: _460  and  _463
REMARK  203  A    between atoms: _463  and  _464
REMARK  204  A    between atoms: _464  and  _465
REMARK  205  A    between atoms: _465  and  _466
REMARK  206  A    between atoms: _466  and  _467
REMARK  207  A    between atoms: _471  and  _473
REMARK  208  A    between atoms: _473  and  _474
REMARK  209  A    between atoms: _473  and  _476
REMARK  210  A    between atoms: _476  and  _477
REMARK  211  A    between atoms: _480  and  _482
REMARK  212  A    between atoms: _482  and  _483
REMARK  213  A    between atoms: _486  and  _488
REMARK  214  A    between atoms: _488  and  _489
REMARK  215  A    between atoms: _488  and  _491
REMARK  216  A    between atoms: _491  and  _492
REMARK  217  A    between atoms: _495  and  _497
REMARK  218  A    between atoms: _497  and  _498
REMARK  219  A    between atoms: _497  and  _500
REMARK  220  A    between atoms: _500  and  _501
REMARK  221  A    between atoms: _507  and  _509
REMARK  222  A    between atoms: _509  and  _510
REMARK  223  A    between atoms: _509  and  _512
REMARK  224  A    between atoms: _512  and  _513
REMARK  225  A    between atoms: _516  and  _518
REMARK  226  A    between atoms: _518  and  _519
REMARK  227  A    between atoms: _518  and  _521
REMARK  228  A    between atoms: _521  and  _522
REMARK  229  A    between atoms: _522  and  _523
REMARK  230  A    between atoms: _523  and  _524
REMARK  231  A    between atoms: _533  and  _535
REMARK  232  A    between atoms: _535  and  _536
REMARK  233  A    between atoms: _535  and  _538
REMARK  234  A    between atoms: _538  and  _539
REMARK                            x       y       z     vdW  Elec       q    Type
REMARK                         _______ _______ _______ _____ _____    ______ ____
ROOT
ATOM      1  O   HOH     1      -4.367  37.342  13.222  0.00  0.00    +0.000 OA
ENDROOT
TORSDOF 0
REMARK  Name = ../refined-set-2016/2fvd/2fvd_pocket.pdb
REMARK  234 active torsions:
REMARK  status: ('A' for Active; 'I' for Inactive)
REMARK    1  A    between atoms: _1  and  _3
REMARK    2  A    between atoms: _3  and  _4
REMARK    3  A    between atoms: _3  and  _6
REMARK    4  A    between atoms: _6  and  _7
REMARK    5  A    between atoms: _7  and  _8
REMARK    6  A    between atoms: _11  and  _13
REMARK    7  A    between atoms: _13  and  _14
REMARK    8  A    between atoms: _13  and  _16
REMARK    9  A    between atoms: _16  and  _17
REMARK   10  A    between atoms: _17  and  _18
REMARK   11  A    between atoms: _18  and  _19
REMARK   12  A    between atoms: _19  and  _20
REMARK   13  A    between atoms: _24  and  _26
REMARK   14  A    between atoms: _26  and  _27
REMARK   15  A    between atoms: _26  and  _29
REMARK   16  A    between atoms: _29  and  _30
REMARK   17  A    between atoms: _33  and  _35
REMARK   18  A    between atoms: _35  and  _36
REMARK   19  A    between atoms: _38  and  _40
REMARK   20  A    between atoms: _40  and  _41
REMARK   21  A    between atoms: _40  and  _43
REMARK   22  A    between atoms: _43  and  _44
REMARK   23  A    between atoms: _44  and  _45
REMARK   24  A    between atoms: _48  and  _50
REMARK   25  A    between atoms: _50  and  _51
REMARK   26  A    between atoms: _53  and  _55
REMARK   27  A    between atoms: _55  and  _56
REMARK   28  A    between atoms: _55  and  _58
REMARK   29  A    between atoms: _58  and  _59
REMARK   30  A    between atoms: _62  and  _64
REMARK   31  A    between atoms: _64  and  _65
REMARK   32  A    between atoms: _64  and  _67
REMARK   33  A    between atoms: _67  and  _68
REMARK   34  A    between atoms: _73  and  _74
REMARK   35  A    between atoms: _76  and  _78
REMARK   36  A    between atoms: _78  and  _79
REMARK   37  A    between atoms: _81  and  _83
REMARK   38  A    between atoms: _83  and  _84
REMARK   39  A    between atoms: _83  and  _86
REMARK   40  A    between atoms: _89  and  _91
REMARK   41  A    between atoms: _91  and  _92
REMARK   42  A    between atoms: _91  and  _94
REMARK   43  A    between atoms: _97  and  _99
REMARK   44  A    between atoms: _99  and  _100
REMARK   45  A    between atoms: _99  and  _102
REMARK   46  A    between atoms: _102  and  _103
REMARK   47  A    between atoms: _108  and  _109
REMARK   48  A    between atoms: _111  and  _113
REMARK   49  A    between atoms: _113  and  _114
REMARK   50  A    between atoms: _113  and  _116
REMARK   51  A    between atoms: _116  and  _117
REMARK   52  A    between atoms: _117  and  _118
REMARK   53  A    between atoms: _118  and  _119
REMARK   54  A    between atoms: _119  and  _120
REMARK   55  A    between atoms: _124  and  _126
REMARK   56  A    between atoms: _126  and  _127
REMARK   57  A    between atoms: _126  and  _129
REMARK   58  A    between atoms: _132  and  _134
REMARK   59  A    between atoms: _134  and  _135
REMARK   60  A    between atoms: _134  and  _137
REMARK   61  A    between atoms: _140  and  _142
REMARK   62  A    between atoms: _142  and  _143
REMARK   63  A    between atoms: _146  and  _148
REMARK   64  A    between atoms: _148  and  _149
REMARK   65  A    between atoms: _148  and  _151
REMARK   66  A    between atoms: _151  and  _152
REMARK   67  A    between atoms: _155  and  _157
REMARK   68  A    between atoms: _157  and  _158
REMARK   69  A    between atoms: _157  and  _160
REMARK   70  A    between atoms: _160  and  _161
REMARK   71  A    between atoms: _161  and  _162
REMARK   72  A    between atoms: _162  and  _163
REMARK   73  A    between atoms: _163  and  _164
REMARK   74  A    between atoms: _168  and  _170
REMARK   75  A    between atoms: _170  and  _171
REMARK   76  A    between atoms: _170  and  _173
REMARK   77  A    between atoms: _173  and  _174
REMARK   78  A    between atoms: _174  and  _175
REMARK   79  A    between atoms: _175  and  _176
REMARK   80  A    between atoms: _176  and  _177
REMARK   81  A    between atoms: _181  and  _183
REMARK   82  A    between atoms: _183  and  _184
REMARK   83  A    between atoms: _183  and  _186
REMARK   84  A    between atoms: _186  and  _187
REMARK   85  A    between atoms: _190  and  _192
REMARK   86  A    between atoms: _192  and  _193
REMARK   87  A    between atoms: _192  and  _195
REMARK   88  A    between atoms: _198  and  _200
REMARK   89  A    between atoms: _200  and  _201
REMARK   90  A    between atoms: _200  and  _203
REMARK   91  A    between atoms: _203  and  _204
REMARK   92  A    between atoms: _204  and  _205
REMARK   93  A    between atoms: _205  and  _206
REMARK   94  A    between atoms: _206  and  _207
REMARK   95  A    between atoms: _211  and  _213
REMARK   96  A    between atoms: _213  and  _214
REMARK   97  A    between atoms: _213  and  _216
REMARK   98  A    between atoms: _216  and  _217
REMARK   99  A    between atoms: _220  and  _222
REMARK  100  A    between atoms: _222  and  _223
REMARK  101  A    between atoms: _222  and  _225
REMARK  102  A    between atoms: _225  and  _226
REMARK  103  A    between atoms: _229  and  _231
REMARK  104  A    between atoms: _231  and  _232
REMARK  105  A    between atoms: _231  and  _234
REMARK  106  A    between atoms: _234  and  _235
REMARK  107  A    between atoms: _238  and  _240
REMARK  108  A    between atoms: _240  and  _241
REMARK  109  A    between atoms: _240  and  _243
REMARK  110  A    between atoms: _246  and  _248
REMARK  111  A    between atoms: _248  and  _249
REMARK  112  A    between atoms: _248  and  _251
REMARK  113  A    between atoms: _251  and  _252
REMARK  114  A    between atoms: _258  and  _260
REMARK  115  A    between atoms: _260  and  _261
REMARK  116  A    between atoms: _260  and  _263
REMARK  117  A    between atoms: _263  and  _264
REMARK  118  A    between atoms: _264  and  _265
REMARK  119  A    between atoms: _268  and  _270
REMARK  120  A    between atoms: _270  and  _271
REMARK  121  A    between atoms: _270  and  _273
REMARK  122  A    between atoms: _273  and  _274
REMARK  123  A    between atoms: _280  and  _282
REMARK  124  A    between atoms: _282  and  _283
REMARK  125  A    between atoms: _282  and  _285
REMARK  126  A    between atoms: _285  and  _286
REMARK  127  A    between atoms: _289  and  _291
REMARK  128  A    between atoms: _291  and  _292
REMARK  129  A    between atoms: _291  and  _294
REMARK  130  A    between atoms: _294  and  _295
REMARK  131  A    between atoms: _300  and  _302
REMARK  132  A    between atoms: _302  and  _303
REMARK  133  A    between atoms: _302  and  _305
REMARK  134  A    between atoms: _305  and  _306
REMARK  135  A    between atoms: _306  and  _307
REMARK  136  A    between atoms: _312  and  _314
REMARK  137  A    between atoms: _314  and  _315
REMARK  138  A    between atoms: _314  and  _317
REMARK  139  A    between atoms: _317  and  _318
REMARK  140  A    between atoms: _321  and  _323
REMARK  141  A    between atoms: _323  and  _324
REMARK  142  A    between atoms: _323  and  _326
REMARK  143  A    between atoms: _326  and  _327
REMARK  144  A    between atoms: _330  and  _332
REMARK  145  A    between atoms: _332  and  _333
REMARK  146  A    between atoms: _332  and  _335
REMARK  147  A    between atoms: _335  and  _336
REMARK  148  A    between atoms: _336  and  _337
REMARK  149  A    between atoms: _337  and  _338
REMARK  150  A    between atoms: _338  and  _339
REMARK  151  A    between atoms: _343  and  _345
REMARK  152  A    between atoms: _345  and  _346
REMARK  153  A    between atoms: _345  and  _348
REMARK  154  A    between atoms: _348  and  _349
REMARK  155  A    between atoms: _349  and  _350
REMARK  156  A    between atoms: _350  and  _351
REMARK  157  A    between atoms: _351  and  _352
REMARK  158  A    between atoms: _356  and  _358
REMARK  159  A    between atoms: _358  and  _359
REMARK  160  A    between atoms: _358  and  _361
REMARK  161  A    between atoms: _361  and  _362
REMARK  162  A    between atoms: _368  and  _370
REMARK  163  A    between atoms: _370  and  _371
REMARK  164  A    between atoms: _370  and  _373
REMARK  165  A    between atoms: _373  and  _374
REMARK  166  A    between atoms: _374  and  _375
REMARK  167  A    between atoms: _377  and  _379
REMARK  168  A    between atoms: _379  and  _380
REMARK  169  A    between atoms: _379  and  _382
REMARK  170  A    between atoms: _382  and  _383
REMARK  171  A    between atoms: _388  and  _390
REMARK  172  A    between atoms: _390  and  _391
REMARK  173  A    between atoms: _390  and  _393
REMARK  174  A    between atoms: _393  and  _394
REMARK  175  A    between atoms: _394  and  _395
REMARK  176  A    between atoms: _395  and  _396
REMARK  177  A    between atoms: _396  and  _397
REMARK  178  A    between atoms: _402  and  _403
REMARK  179  A    between atoms: _408  and  _410
REMARK  180  A    between atoms: _410  and  _411
REMARK  181  A    between atoms: _410  and  _413
REMARK  182  A    between atoms: _413  and  _414
REMARK  183  A    between atoms: _414  and  _415
REMARK  184  A    between atoms: _420  and  _422
REMARK  185  A    between atoms: _422  and  _423
REMARK  186  A    between atoms: _422  and  _425
REMARK  187  A    between atoms: _425  and  _426
REMARK  188  A    between atoms: _431  and  _433
REMARK  189  A    between atoms: _433  and  _434
REMARK  190  A    between atoms: _433  and  _436
REMARK  191  A    between atoms: _436  and  _437
REMARK  192  A    between atoms: _440  and  _442
REMARK  193  A    between atoms: _442  and  _443
REMARK  194  A    between atoms: _442  and  _445
REMARK  195  A    between atoms: _445  and  _446
REMARK  196  A    between atoms: _449  and  _451
REMARK  197  A    between atoms: _451  and  _452
REMARK  198  A    between atoms: _451  and  _454
REMARK  199  A    between atoms: _454  and  _455
REMARK  200  A    between atoms: _458  and  _460
REMARK  201  A    between atoms: _460  and  _461
REMARK  202  A    between atoms: _460  and  _463
REMARK  203  A    between atoms: _463  and  _464
REMARK  204  A    between atoms: _464  and  _465
REMARK  205  A    between atoms: _465  and  _466
REMARK  206  A    between atoms: _466  and  _467
REMARK  207  A    between atoms: _471  and  _473
REMARK  208  A    between atoms: _473  and  _474
REMARK  209  A    between atoms: _473  and  _476
REMARK  210  A    between atoms: _476  and  _477
REMARK  211  A    between atoms: _480  and  _482
REMARK  212  A    between atoms: _482  and  _483
REMARK  213  A    between atoms: _486  and  _488
REMARK  214  A    between atoms: _488  and  _489
REMARK  215  A    between atoms: _488  and  _491
REMARK  216  A    between atoms: _491  and  _492
REMARK  217  A    between atoms: _495  and  _497
REMARK  218  A    between atoms: _497  and  _498
REMARK  219  A    between atoms: _497  and  _500
REMARK  220  A    between atoms: _500  and  _501
REMARK  221  A    between atoms: _507  and  _509
REMARK  222  A    between atoms: _509  and  _510
REMARK  223  A    between atoms: _509  and  _512
REMARK  224  A    between atoms: _512  and  _513
REMARK  225  A    between atoms: _516  and  _518
REMARK  226  A    between atoms: _518  and  _519
REMARK  227  A    between atoms: _518  and  _521
REMARK  228  A    between atoms: _521  and  _522
REMARK  229  A    between atoms: _522  and  _523
REMARK  230  A    between atoms: _523  and  _524
REMARK  231  A    between atoms: _533  and  _535
REMARK  232  A    between atoms: _535  and  _536
REMARK  233  A    between atoms: _535  and  _538
REMARK  234  A    between atoms: _538  and  _539
REMARK                            x       y       z     vdW  Elec       q    Type
REMARK                         _______ _______ _______ _____ _____    ______ ____
ROOT
ATOM      1  O   HOH     1      -5.608  28.542  18.187  0.00  0.00    +0.000 OA
ENDROOT
TORSDOF 0
REMARK  Name = ../refined-set-2016/2fvd/2fvd_pocket.pdb
REMARK  234 active torsions:
REMARK  status: ('A' for Active; 'I' for Inactive)
REMARK    1  A    between atoms: _1  and  _3
REMARK    2  A    between atoms: _3  and  _4
REMARK    3  A    between atoms: _3  and  _6
REMARK    4  A    between atoms: _6  and  _7
REMARK    5  A    between atoms: _7  and  _8
REMARK    6  A    between atoms: _11  and  _13
REMARK    7  A    between atoms: _13  and  _14
REMARK    8  A    between atoms: _13  and  _16
REMARK    9  A    between atoms: _16  and  _17
REMARK   10  A    between atoms: _17  and  _18
REMARK   11  A    between atoms: _18  and  _19
REMARK   12  A    between atoms: _19  and  _20
REMARK   13  A    between atoms: _24  and  _26
REMARK   14  A    between atoms: _26  and  _27
REMARK   15  A    between atoms: _26  and  _29
REMARK   16  A    between atoms: _29  and  _30
REMARK   17  A    between atoms: _33  and  _35
REMARK   18  A    between atoms: _35  and  _36
REMARK   19  A    between atoms: _38  and  _40
REMARK   20  A    between atoms: _40  and  _41
REMARK   21  A    between atoms: _40  and  _43
REMARK   22  A    between atoms: _43  and  _44
REMARK   23  A    between atoms: _44  and  _45
REMARK   24  A    between atoms: _48  and  _50
REMARK   25  A    between atoms: _50  and  _51
REMARK   26  A    between atoms: _53  and  _55
REMARK   27  A    between atoms: _55  and  _56
REMARK   28  A    between atoms: _55  and  _58
REMARK   29  A    between atoms: _58  and  _59
REMARK   30  A    between atoms: _62  and  _64
REMARK   31  A    between atoms: _64  and  _65
REMARK   32  A    between atoms: _64  and  _67
REMARK   33  A    between atoms: _67  and  _68
REMARK   34  A    between atoms: _73  and  _74
REMARK   35  A    between atoms: _76  and  _78
REMARK   36  A    between atoms: _78  and  _79
REMARK   37  A    between atoms: _81  and  _83
REMARK   38  A    between atoms: _83  and  _84
REMARK   39  A    between atoms: _83  and  _86
REMARK   40  A    between atoms: _89  and  _91
REMARK   41  A    between atoms: _91  and  _92
REMARK   42  A    between atoms: _91  and  _94
REMARK   43  A    between atoms: _97  and  _99
REMARK   44  A    between atoms: _99  and  _100
REMARK   45  A    between atoms: _99  and  _102
REMARK   46  A    between atoms: _102  and  _103
REMARK   47  A    between atoms: _108  and  _109
REMARK   48  A    between atoms: _111  and  _113
REMARK   49  A    between atoms: _113  and  _114
REMARK   50  A    between atoms: _113  and  _116
REMARK   51  A    between atoms: _116  and  _117
REMARK   52  A    between atoms: _117  and  _118
REMARK   53  A    between atoms: _118  and  _119
REMARK   54  A    between atoms: _119  and  _120
REMARK   55  A    between atoms: _124  and  _126
REMARK   56  A    between atoms: _126  and  _127
REMARK   57  A    between atoms: _126  and  _129
REMARK   58  A    between atoms: _132  and  _134
REMARK   59  A    between atoms: _134  and  _135
REMARK   60  A    between atoms: _134  and  _137
REMARK   61  A    between atoms: _140  and  _142
REMARK   62  A    between atoms: _142  and  _143
REMARK   63  A    between atoms: _146  and  _148
REMARK   64  A    between atoms: _148  and  _149
REMARK   65  A    between atoms: _148  and  _151
REMARK   66  A    between atoms: _151  and  _152
REMARK   67  A    between atoms: _155  and  _157
REMARK   68  A    between atoms: _157  and  _158
REMARK   69  A    between atoms: _157  and  _160
REMARK   70  A    between atoms: _160  and  _161
REMARK   71  A    between atoms: _161  and  _162
REMARK   72  A    between atoms: _162  and  _163
REMARK   73  A    between atoms: _163  and  _164
REMARK   74  A    between atoms: _168  and  _170
REMARK   75  A    between atoms: _170  and  _171
REMARK   76  A    between atoms: _170  and  _173
REMARK   77  A    between atoms: _173  and  _174
REMARK   78  A    between atoms: _174  and  _175
REMARK   79  A    between atoms: _175  and  _176
REMARK   80  A    between atoms: _176  and  _177
REMARK   81  A    between atoms: _181  and  _183
REMARK   82  A    between atoms: _183  and  _184
REMARK   83  A    between atoms: _183  and  _186
REMARK   84  A    between atoms: _186  and  _187
REMARK   85  A    between atoms: _190  and  _192
REMARK   86  A    between atoms: _192  and  _193
REMARK   87  A    between atoms: _192  and  _195
REMARK   88  A    between atoms: _198  and  _200
REMARK   89  A    between atoms: _200  and  _201
REMARK   90  A    between atoms: _200  and  _203
REMARK   91  A    between atoms: _203  and  _204
REMARK   92  A    between atoms: _204  and  _205
REMARK   93  A    between atoms: _205  and  _206
REMARK   94  A    between atoms: _206  and  _207
REMARK   95  A    between atoms: _211  and  _213
REMARK   96  A    between atoms: _213  and  _214
REMARK   97  A    between atoms: _213  and  _216
REMARK   98  A    between atoms: _216  and  _217
REMARK   99  A    between atoms: _220  and  _222
REMARK  100  A    between atoms: _222  and  _223
REMARK  101  A    between atoms: _222  and  _225
REMARK  102  A    between atoms: _225  and  _226
REMARK  103  A    between atoms: _229  and  _231
REMARK  104  A    between atoms: _231  and  _232
REMARK  105  A    between atoms: _231  and  _234
REMARK  106  A    between atoms: _234  and  _235
REMARK  107  A    between atoms: _238  and  _240
REMARK  108  A    between atoms: _240  and  _241
REMARK  109  A    between atoms: _240  and  _243
REMARK  110  A    between atoms: _246  and  _248
REMARK  111  A    between atoms: _248  and  _249
REMARK  112  A    between atoms: _248  and  _251
REMARK  113  A    between atoms: _251  and  _252
REMARK  114  A    between atoms: _258  and  _260
REMARK  115  A    between atoms: _260  and  _261
REMARK  116  A    between atoms: _260  and  _263
REMARK  117  A    between atoms: _263  and  _264
REMARK  118  A    between atoms: _264  and  _265
REMARK  119  A    between atoms: _268  and  _270
REMARK  120  A    between atoms: _270  and  _271
REMARK  121  A    between atoms: _270  and  _273
REMARK  122  A    between atoms: _273  and  _274
REMARK  123  A    between atoms: _280  and  _282
REMARK  124  A    between atoms: _282  and  _283
REMARK  125  A    between atoms: _282  and  _285
REMARK  126  A    between atoms: _285  and  _286
REMARK  127  A    between atoms: _289  and  _291
REMARK  128  A    between atoms: _291  and  _292
REMARK  129  A    between atoms: _291  and  _294
REMARK  130  A    between atoms: _294  and  _295
REMARK  131  A    between atoms: _300  and  _302
REMARK  132  A    between atoms: _302  and  _303
REMARK  133  A    between atoms: _302  and  _305
REMARK  134  A    between atoms: _305  and  _306
REMARK  135  A    between atoms: _306  and  _307
REMARK  136  A    between atoms: _312  and  _314
REMARK  137  A    between atoms: _314  and  _315
REMARK  138  A    between atoms: _314  and  _317
REMARK  139  A    between atoms: _317  and  _318
REMARK  140  A    between atoms: _321  and  _323
REMARK  141  A    between atoms: _323  and  _324
REMARK  142  A    between atoms: _323  and  _326
REMARK  143  A    between atoms: _326  and  _327
REMARK  144  A    between atoms: _330  and  _332
REMARK  145  A    between atoms: _332  and  _333
REMARK  146  A    between atoms: _332  and  _335
REMARK  147  A    between atoms: _335  and  _336
REMARK  148  A    between atoms: _336  and  _337
REMARK  149  A    between atoms: _337  and  _338
REMARK  150  A    between atoms: _338  and  _339
REMARK  151  A    between atoms: _343  and  _345
REMARK  152  A    between atoms: _345  and  _346
REMARK  153  A    between atoms: _345  and  _348
REMARK  154  A    between atoms: _348  and  _349
REMARK  155  A    between atoms: _349  and  _350
REMARK  156  A    between atoms: _350  and  _351
REMARK  157  A    between atoms: _351  and  _352
REMARK  158  A    between atoms: _356  and  _358
REMARK  159  A    between atoms: _358  and  _359
REMARK  160  A    between atoms: _358  and  _361
REMARK  161  A    between atoms: _361  and  _362
REMARK  162  A    between atoms: _368  and  _370
REMARK  163  A    between atoms: _370  and  _371
REMARK  164  A    between atoms: _370  and  _373
REMARK  165  A    between atoms: _373  and  _374
REMARK  166  A    between atoms: _374  and  _375
REMARK  167  A    between atoms: _377  and  _379
REMARK  168  A    between atoms: _379  and  _380
REMARK  169  A    between atoms: _379  and  _382
REMARK  170  A    between atoms: _382  and  _383
REMARK  171  A    between atoms: _388  and  _390
REMARK  172  A    between atoms: _390  and  _391
REMARK  173  A    between atoms: _390  and  _393
REMARK  174  A    between atoms: _393  and  _394
REMARK  175  A    between atoms: _394  and  _395
REMARK  176  A    between atoms: _395  and  _396
REMARK  177  A    between atoms: _396  and  _397
REMARK  178  A    between atoms: _402  and  _403
REMARK  179  A    between atoms: _408  and  _410
REMARK  180  A    between atoms: _410  and  _411
REMARK  181  A    between atoms: _410  and  _413
REMARK  182  A    between atoms: _413  and  _414
REMARK  183  A    between atoms: _414  and  _415
REMARK  184  A    between atoms: _420  and  _422
REMARK  185  A    between atoms: _422  and  _423
REMARK  186  A    between atoms: _422  and  _425
REMARK  187  A    between atoms: _425  and  _426
REMARK  188  A    between atoms: _431  and  _433
REMARK  189  A    between atoms: _433  and  _434
REMARK  190  A    between atoms: _433  and  _436
REMARK  191  A    between atoms: _436  and  _437
REMARK  192  A    between atoms: _440  and  _442
REMARK  193  A    between atoms: _442  and  _443
REMARK  194  A    between atoms: _442  and  _445
REMARK  195  A    between atoms: _445  and  _446
REMARK  196  A    between atoms: _449  and  _451
REMARK  197  A    between atoms: _451  and  _452
REMARK  198  A    between atoms: _451  and  _454
REMARK  199  A    between atoms: _454  and  _455
REMARK  200  A    between atoms: _458  and  _460
REMARK  201  A    between atoms: _460  and  _461
REMARK  202  A    between atoms: _460  and  _463
REMARK  203  A    between atoms: _463  and  _464
REMARK  204  A    between atoms: _464  and  _465
REMARK  205  A    between atoms: _465  and  _466
REMARK  206  A    between atoms: _466  and  _467
REMARK  207  A    between atoms: _471  and  _473
REMARK  208  A    between atoms: _473  and  _474
REMARK  209  A    between atoms: _473  and  _476
REMARK  210  A    between atoms: _476  and  _477
REMARK  211  A    between atoms: _480  and  _482
REMARK  212  A    between atoms: _482  and  _483
REMARK  213  A    between atoms: _486  and  _488
REMARK  214  A    between atoms: _488  and  _489
REMARK  215  A    between atoms: _488  and  _491
REMARK  216  A    between atoms: _491  and  _492
REMARK  217  A    between atoms: _495  and  _497
REMARK  218  A    between atoms: _497  and  _498
REMARK  219  A    between atoms: _497  and  _500
REMARK  220  A    between atoms: _500  and  _501
REMARK  221  A    between atoms: _507  and  _509
REMARK  222  A    between atoms: _509  and  _510
REMARK  223  A    between atoms: _509  and  _512
REMARK  224  A    between atoms: _512  and  _513
REMARK  225  A    between atoms: _516  and  _518
REMARK  226  A    between atoms: _518  and  _519
REMARK  227  A    between atoms: _518  and  _521
REMARK  228  A    between atoms: _521  and  _522
REMARK  229  A    between atoms: _522  and  _523
REMARK  230  A    between atoms: _523  and  _524
REMARK  231  A    between atoms: _533  and  _535
REMARK  232  A    between atoms: _535  and  _536
REMARK  233  A    between atoms: _535  and  _538
REMARK  234  A    between atoms: _538  and  _539
REMARK                            x       y       z     vdW  Elec       q    Type
REMARK                         _______ _______ _______ _____ _____    ______ ____
ROOT
ATOM      1  O   HOH     1       0.776  37.485   2.068  0.00  0.00    +0.000 OA
ENDROOT
TORSDOF 0
REMARK  Name = ../refined-set-2016/2fvd/2fvd_pocket.pdb
REMARK  234 active torsions:
REMARK  status: ('A' for Active; 'I' for Inactive)
REMARK    1  A    between atoms: _1  and  _3
REMARK    2  A    between atoms: _3  and  _4
REMARK    3  A    between atoms: _3  and  _6
REMARK    4  A    between atoms: _6  and  _7
REMARK    5  A    between atoms: _7  and  _8
REMARK    6  A    between atoms: _11  and  _13
REMARK    7  A    between atoms: _13  and  _14
REMARK    8  A    between atoms: _13  and  _16
REMARK    9  A    between atoms: _16  and  _17
REMARK   10  A    between atoms: _17  and  _18
REMARK   11  A    between atoms: _18  and  _19
REMARK   12  A    between atoms: _19  and  _20
REMARK   13  A    between atoms: _24  and  _26
REMARK   14  A    between atoms: _26  and  _27
REMARK   15  A    between atoms: _26  and  _29
REMARK   16  A    between atoms: _29  and  _30
REMARK   17  A    between atoms: _33  and  _35
REMARK   18  A    between atoms: _35  and  _36
REMARK   19  A    between atoms: _38  and  _40
REMARK   20  A    between atoms: _40  and  _41
REMARK   21  A    between atoms: _40  and  _43
REMARK   22  A    between atoms: _43  and  _44
REMARK   23  A    between atoms: _44  and  _45
REMARK   24  A    between atoms: _48  and  _50
REMARK   25  A    between atoms: _50  and  _51
REMARK   26  A    between atoms: _53  and  _55
REMARK   27  A    between atoms: _55  and  _56
REMARK   28  A    between atoms: _55  and  _58
REMARK   29  A    between atoms: _58  and  _59
REMARK   30  A    between atoms: _62  and  _64
REMARK   31  A    between atoms: _64  and  _65
REMARK   32  A    between atoms: _64  and  _67
REMARK   33  A    between atoms: _67  and  _68
REMARK   34  A    between atoms: _73  and  _74
REMARK   35  A    between atoms: _76  and  _78
REMARK   36  A    between atoms: _78  and  _79
REMARK   37  A    between atoms: _81  and  _83
REMARK   38  A    between atoms: _83  and  _84
REMARK   39  A    between atoms: _83  and  _86
REMARK   40  A    between atoms: _89  and  _91
REMARK   41  A    between atoms: _91  and  _92
REMARK   42  A    between atoms: _91  and  _94
REMARK   43  A    between atoms: _97  and  _99
REMARK   44  A    between atoms: _99  and  _100
REMARK   45  A    between atoms: _99  and  _102
REMARK   46  A    between atoms: _102  and  _103
REMARK   47  A    between atoms: _108  and  _109
REMARK   48  A    between atoms: _111  and  _113
REMARK   49  A    between atoms: _113  and  _114
REMARK   50  A    between atoms: _113  and  _116
REMARK   51  A    between atoms: _116  and  _117
REMARK   52  A    between atoms: _117  and  _118
REMARK   53  A    between atoms: _118  and  _119
REMARK   54  A    between atoms: _119  and  _120
REMARK   55  A    between atoms: _124  and  _126
REMARK   56  A    between atoms: _126  and  _127
REMARK   57  A    between atoms: _126  and  _129
REMARK   58  A    between atoms: _132  and  _134
REMARK   59  A    between atoms: _134  and  _135
REMARK   60  A    between atoms: _134  and  _137
REMARK   61  A    between atoms: _140  and  _142
REMARK   62  A    between atoms: _142  and  _143
REMARK   63  A    between atoms: _146  and  _148
REMARK   64  A    between atoms: _148  and  _149
REMARK   65  A    between atoms: _148  and  _151
REMARK   66  A    between atoms: _151  and  _152
REMARK   67  A    between atoms: _155  and  _157
REMARK   68  A    between atoms: _157  and  _158
REMARK   69  A    between atoms: _157  and  _160
REMARK   70  A    between atoms: _160  and  _161
REMARK   71  A    between atoms: _161  and  _162
REMARK   72  A    between atoms: _162  and  _163
REMARK   73  A    between atoms: _163  and  _164
REMARK   74  A    between atoms: _168  and  _170
REMARK   75  A    between atoms: _170  and  _171
REMARK   76  A    between atoms: _170  and  _173
REMARK   77  A    between atoms: _173  and  _174
REMARK   78  A    between atoms: _174  and  _175
REMARK   79  A    between atoms: _175  and  _176
REMARK   80  A    between atoms: _176  and  _177
REMARK   81  A    between atoms: _181  and  _183
REMARK   82  A    between atoms: _183  and  _184
REMARK   83  A    between atoms: _183  and  _186
REMARK   84  A    between atoms: _186  and  _187
REMARK   85  A    between atoms: _190  and  _192
REMARK   86  A    between atoms: _192  and  _193
REMARK   87  A    between atoms: _192  and  _195
REMARK   88  A    between atoms: _198  and  _200
REMARK   89  A    between atoms: _200  and  _201
REMARK   90  A    between atoms: _200  and  _203
REMARK   91  A    between atoms: _203  and  _204
REMARK   92  A    between atoms: _204  and  _205
REMARK   93  A    between atoms: _205  and  _206
REMARK   94  A    between atoms: _206  and  _207
REMARK   95  A    between atoms: _211  and  _213
REMARK   96  A    between atoms: _213  and  _214
REMARK   97  A    between atoms: _213  and  _216
REMARK   98  A    between atoms: _216  and  _217
REMARK   99  A    between atoms: _220  and  _222
REMARK  100  A    between atoms: _222  and  _223
REMARK  101  A    between atoms: _222  and  _225
REMARK  102  A    between atoms: _225  and  _226
REMARK  103  A    between atoms: _229  and  _231
REMARK  104  A    between atoms: _231  and  _232
REMARK  105  A    between atoms: _231  and  _234
REMARK  106  A    between atoms: _234  and  _235
REMARK  107  A    between atoms: _238  and  _240
REMARK  108  A    between atoms: _240  and  _241
REMARK  109  A    between atoms: _240  and  _243
REMARK  110  A    between atoms: _246  and  _248
REMARK  111  A    between atoms: _248  and  _249
REMARK  112  A    between atoms: _248  and  _251
REMARK  113  A    between atoms: _251  and  _252
REMARK  114  A    between atoms: _258  and  _260
REMARK  115  A    between atoms: _260  and  _261
REMARK  116  A    between atoms: _260  and  _263
REMARK  117  A    between atoms: _263  and  _264
REMARK  118  A    between atoms: _264  and  _265
REMARK  119  A    between atoms: _268  and  _270
REMARK  120  A    between atoms: _270  and  _271
REMARK  121  A    between atoms: _270  and  _273
REMARK  122  A    between atoms: _273  and  _274
REMARK  123  A    between atoms: _280  and  _282
REMARK  124  A    between atoms: _282  and  _283
REMARK  125  A    between atoms: _282  and  _285
REMARK  126  A    between atoms: _285  and  _286
REMARK  127  A    between atoms: _289  and  _291
REMARK  128  A    between atoms: _291  and  _292
REMARK  129  A    between atoms: _291  and  _294
REMARK  130  A    between atoms: _294  and  _295
REMARK  131  A    between atoms: _300  and  _302
REMARK  132  A    between atoms: _302  and  _303
REMARK  133  A    between atoms: _302  and  _305
REMARK  134  A    between atoms: _305  and  _306
REMARK  135  A    between atoms: _306  and  _307
REMARK  136  A    between atoms: _312  and  _314
REMARK  137  A    between atoms: _314  and  _315
REMARK  138  A    between atoms: _314  and  _317
REMARK  139  A    between atoms: _317  and  _318
REMARK  140  A    between atoms: _321  and  _323
REMARK  141  A    between atoms: _323  and  _324
REMARK  142  A    between atoms: _323  and  _326
REMARK  143  A    between atoms: _326  and  _327
REMARK  144  A    between atoms: _330  and  _332
REMARK  145  A    between atoms: _332  and  _333
REMARK  146  A    between atoms: _332  and  _335
REMARK  147  A    between atoms: _335  and  _336
REMARK  148  A    between atoms: _336  and  _337
REMARK  149  A    between atoms: _337  and  _338
REMARK  150  A    between atoms: _338  and  _339
REMARK  151  A    between atoms: _343  and  _345
REMARK  152  A    between atoms: _345  and  _346
REMARK  153  A    between atoms: _345  and  _348
REMARK  154  A    between atoms: _348  and  _349
REMARK  155  A    between atoms: _349  and  _350
REMARK  156  A    between atoms: _350  and  _351
REMARK  157  A    between atoms: _351  and  _352
REMARK  158  A    between atoms: _356  and  _358
REMARK  159  A    between atoms: _358  and  _359
REMARK  160  A    between atoms: _358  and  _361
REMARK  161  A    between atoms: _361  and  _362
REMARK  162  A    between atoms: _368  and  _370
REMARK  163  A    between atoms: _370  and  _371
REMARK  164  A    between atoms: _370  and  _373
REMARK  165  A    between atoms: _373  and  _374
REMARK  166  A    between atoms: _374  and  _375
REMARK  167  A    between atoms: _377  and  _379
REMARK  168  A    between atoms: _379  and  _380
REMARK  169  A    between atoms: _379  and  _382
REMARK  170  A    between atoms: _382  and  _383
REMARK  171  A    between atoms: _388  and  _390
REMARK  172  A    between atoms: _390  and  _391
REMARK  173  A    between atoms: _390  and  _393
REMARK  174  A    between atoms: _393  and  _394
REMARK  175  A    between atoms: _394  and  _395
REMARK  176  A    between atoms: _395  and  _396
REMARK  177  A    between atoms: _396  and  _397
REMARK  178  A    between atoms: _402  and  _403
REMARK  179  A    between atoms: _408  and  _410
REMARK  180  A    between atoms: _410  and  _411
REMARK  181  A    between atoms: _410  and  _413
REMARK  182  A    between atoms: _413  and  _414
REMARK  183  A    between atoms: _414  and  _415
REMARK  184  A    between atoms: _420  and  _422
REMARK  185  A    between atoms: _422  and  _423
REMARK  186  A    between atoms: _422  and  _425
REMARK  187  A    between atoms: _425  and  _426
REMARK  188  A    between atoms: _431  and  _433
REMARK  189  A    between atoms: _433  and  _434
REMARK  190  A    between atoms: _433  and  _436
REMARK  191  A    between atoms: _436  and  _437
REMARK  192  A    between atoms: _440  and  _442
REMARK  193  A    between atoms: _442  and  _443
REMARK  194  A    between atoms: _442  and  _445
REMARK  195  A    between atoms: _445  and  _446
REMARK  196  A    between atoms: _449  and  _451
REMARK  197  A    between atoms: _451  and  _452
REMARK  198  A    between atoms: _451  and  _454
REMARK  199  A    between atoms: _454  and  _455
REMARK  200  A    between atoms: _458  and  _460
REMARK  201  A    between atoms: _460  and  _461
REMARK  202  A    between atoms: _460  and  _463
REMARK  203  A    between atoms: _463  and  _464
REMARK  204  A    between atoms: _464  and  _465
REMARK  205  A    between atoms: _465  and  _466
REMARK  206  A    between atoms: _466  and  _467
REMARK  207  A    between atoms: _471  and  _473
REMARK  208  A    between atoms: _473  and  _474
REMARK  209  A    between atoms: _473  and  _476
REMARK  210  A    between atoms: _476  and  _477
REMARK  211  A    between atoms: _480  and  _482
REMARK  212  A    between atoms: _482  and  _483
REMARK  213  A    between atoms: _486  and  _488
REMARK  214  A    between atoms: _488  and  _489
REMARK  215  A    between atoms: _488  and  _491
REMARK  216  A    between atoms: _491  and  _492
REMARK  217  A    between atoms: _495  and  _497
REMARK  218  A    between atoms: _497  and  _498
REMARK  219  A    between atoms: _497  and  _500
REMARK  220  A    between atoms: _500  and  _501
REMARK  221  A    between atoms: _507  and  _509
REMARK  222  A    between atoms: _509  and  _510
REMARK  223  A    between atoms: _509  and  _512
REMARK  224  A    between atoms: _512  and  _513
REMARK  225  A    between atoms: _516  and  _518
REMARK  226  A    between atoms: _518  and  _519
REMARK  227  A    between atoms: _518  and  _521
REMARK  228  A    between atoms: _521  and  _522
REMARK  229  A    between atoms: _522  and  _523
REMARK  230  A    between atoms: _523  and  _524
REMARK  231  A    between atoms: _533  and  _535
REMARK  232  A    between atoms: _535  and  _536
REMARK  233  A    between atoms: _535  and  _538
REMARK  234  A    between atoms: _538  and  _539
REMARK                            x       y       z     vdW  Elec       q    Type
REMARK                         _______ _______ _______ _____ _____    ______ ____
ROOT
ATOM      1  O   HOH     1       6.009  27.793   0.544  0.00  0.00    +0.000 OA
ENDROOT
TORSDOF 0
REMARK  Name = ../refined-set-2016/2fvd/2fvd_pocket.pdb
REMARK  234 active torsions:
REMARK  status: ('A' for Active; 'I' for Inactive)
REMARK    1  A    between atoms: _1  and  _3
REMARK    2  A    between atoms: _3  and  _4
REMARK    3  A    between atoms: _3  and  _6
REMARK    4  A    between atoms: _6  and  _7
REMARK    5  A    between atoms: _7  and  _8
REMARK    6  A    between atoms: _11  and  _13
REMARK    7  A    between atoms: _13  and  _14
REMARK    8  A    between atoms: _13  and  _16
REMARK    9  A    between atoms: _16  and  _17
REMARK   10  A    between atoms: _17  and  _18
REMARK   11  A    between atoms: _18  and  _19
REMARK   12  A    between atoms: _19  and  _20
REMARK   13  A    between atoms: _24  and  _26
REMARK   14  A    between atoms: _26  and  _27
REMARK   15  A    between atoms: _26  and  _29
REMARK   16  A    between atoms: _29  and  _30
REMARK   17  A    between atoms: _33  and  _35
REMARK   18  A    between atoms: _35  and  _36
REMARK   19  A    between atoms: _38  and  _40
REMARK   20  A    between atoms: _40  and  _41
REMARK   21  A    between atoms: _40  and  _43
REMARK   22  A    between atoms: _43  and  _44
REMARK   23  A    between atoms: _44  and  _45
REMARK   24  A    between atoms: _48  and  _50
REMARK   25  A    between atoms: _50  and  _51
REMARK   26  A    between atoms: _53  and  _55
REMARK   27  A    between atoms: _55  and  _56
REMARK   28  A    between atoms: _55  and  _58
REMARK   29  A    between atoms: _58  and  _59
REMARK   30  A    between atoms: _62  and  _64
REMARK   31  A    between atoms: _64  and  _65
REMARK   32  A    between atoms: _64  and  _67
REMARK   33  A    between atoms: _67  and  _68
REMARK   34  A    between atoms: _73  and  _74
REMARK   35  A    between atoms: _76  and  _78
REMARK   36  A    between atoms: _78  and  _79
REMARK   37  A    between atoms: _81  and  _83
REMARK   38  A    between atoms: _83  and  _84
REMARK   39  A    between atoms: _83  and  _86
REMARK   40  A    between atoms: _89  and  _91
REMARK   41  A    between atoms: _91  and  _92
REMARK   42  A    between atoms: _91  and  _94
REMARK   43  A    between atoms: _97  and  _99
REMARK   44  A    between atoms: _99  and  _100
REMARK   45  A    between atoms: _99  and  _102
REMARK   46  A    between atoms: _102  and  _103
REMARK   47  A    between atoms: _108  and  _109
REMARK   48  A    between atoms: _111  and  _113
REMARK   49  A    between atoms: _113  and  _114
REMARK   50  A    between atoms: _113  and  _116
REMARK   51  A    between atoms: _116  and  _117
REMARK   52  A    between atoms: _117  and  _118
REMARK   53  A    between atoms: _118  and  _119
REMARK   54  A    between atoms: _119  and  _120
REMARK   55  A    between atoms: _124  and  _126
REMARK   56  A    between atoms: _126  and  _127
REMARK   57  A    between atoms: _126  and  _129
REMARK   58  A    between atoms: _132  and  _134
REMARK   59  A    between atoms: _134  and  _135
REMARK   60  A    between atoms: _134  and  _137
REMARK   61  A    between atoms: _140  and  _142
REMARK   62  A    between atoms: _142  and  _143
REMARK   63  A    between atoms: _146  and  _148
REMARK   64  A    between atoms: _148  and  _149
REMARK   65  A    between atoms: _148  and  _151
REMARK   66  A    between atoms: _151  and  _152
REMARK   67  A    between atoms: _155  and  _157
REMARK   68  A    between atoms: _157  and  _158
REMARK   69  A    between atoms: _157  and  _160
REMARK   70  A    between atoms: _160  and  _161
REMARK   71  A    between atoms: _161  and  _162
REMARK   72  A    between atoms: _162  and  _163
REMARK   73  A    between atoms: _163  and  _164
REMARK   74  A    between atoms: _168  and  _170
REMARK   75  A    between atoms: _170  and  _171
REMARK   76  A    between atoms: _170  and  _173
REMARK   77  A    between atoms: _173  and  _174
REMARK   78  A    between atoms: _174  and  _175
REMARK   79  A    between atoms: _175  and  _176
REMARK   80  A    between atoms: _176  and  _177
REMARK   81  A    between atoms: _181  and  _183
REMARK   82  A    between atoms: _183  and  _184
REMARK   83  A    between atoms: _183  and  _186
REMARK   84  A    between atoms: _186  and  _187
REMARK   85  A    between atoms: _190  and  _192
REMARK   86  A    between atoms: _192  and  _193
REMARK   87  A    between atoms: _192  and  _195
REMARK   88  A    between atoms: _198  and  _200
REMARK   89  A    between atoms: _200  and  _201
REMARK   90  A    between atoms: _200  and  _203
REMARK   91  A    between atoms: _203  and  _204
REMARK   92  A    between atoms: _204  and  _205
REMARK   93  A    between atoms: _205  and  _206
REMARK   94  A    between atoms: _206  and  _207
REMARK   95  A    between atoms: _211  and  _213
REMARK   96  A    between atoms: _213  and  _214
REMARK   97  A    between atoms: _213  and  _216
REMARK   98  A    between atoms: _216  and  _217
REMARK   99  A    between atoms: _220  and  _222
REMARK  100  A    between atoms: _222  and  _223
REMARK  101  A    between atoms: _222  and  _225
REMARK  102  A    between atoms: _225  and  _226
REMARK  103  A    between atoms: _229  and  _231
REMARK  104  A    between atoms: _231  and  _232
REMARK  105  A    between atoms: _231  and  _234
REMARK  106  A    between atoms: _234  and  _235
REMARK  107  A    between atoms: _238  and  _240
REMARK  108  A    between atoms: _240  and  _241
REMARK  109  A    between atoms: _240  and  _243
REMARK  110  A    between atoms: _246  and  _248
REMARK  111  A    between atoms: _248  and  _249
REMARK  112  A    between atoms: _248  and  _251
REMARK  113  A    between atoms: _251  and  _252
REMARK  114  A    between atoms: _258  and  _260
REMARK  115  A    between atoms: _260  and  _261
REMARK  116  A    between atoms: _260  and  _263
REMARK  117  A    between atoms: _263  and  _264
REMARK  118  A    between atoms: _264  and  _265
REMARK  119  A    between atoms: _268  and  _270
REMARK  120  A    between atoms: _270  and  _271
REMARK  121  A    between atoms: _270  and  _273
REMARK  122  A    between atoms: _273  and  _274
REMARK  123  A    between atoms: _280  and  _282
REMARK  124  A    between atoms: _282  and  _283
REMARK  125  A    between atoms: _282  and  _285
REMARK  126  A    between atoms: _285  and  _286
REMARK  127  A    between atoms: _289  and  _291
REMARK  128  A    between atoms: _291  and  _292
REMARK  129  A    between atoms: _291  and  _294
REMARK  130  A    between atoms: _294  and  _295
REMARK  131  A    between atoms: _300  and  _302
REMARK  132  A    between atoms: _302  and  _303
REMARK  133  A    between atoms: _302  and  _305
REMARK  134  A    between atoms: _305  and  _306
REMARK  135  A    between atoms: _306  and  _307
REMARK  136  A    between atoms: _312  and  _314
REMARK  137  A    between atoms: _314  and  _315
REMARK  138  A    between atoms: _314  and  _317
REMARK  139  A    between atoms: _317  and  _318
REMARK  140  A    between atoms: _321  and  _323
REMARK  141  A    between atoms: _323  and  _324
REMARK  142  A    between atoms: _323  and  _326
REMARK  143  A    between atoms: _326  and  _327
REMARK  144  A    between atoms: _330  and  _332
REMARK  145  A    between atoms: _332  and  _333
REMARK  146  A    between atoms: _332  and  _335
REMARK  147  A    between atoms: _335  and  _336
REMARK  148  A    between atoms: _336  and  _337
REMARK  149  A    between atoms: _337  and  _338
REMARK  150  A    between atoms: _338  and  _339
REMARK  151  A    between atoms: _343  and  _345
REMARK  152  A    between atoms: _345  and  _346
REMARK  153  A    between atoms: _345  and  _348
REMARK  154  A    between atoms: _348  and  _349
REMARK  155  A    between atoms: _349  and  _350
REMARK  156  A    between atoms: _350  and  _351
REMARK  157  A    between atoms: _351  and  _352
REMARK  158  A    between atoms: _356  and  _358
REMARK  159  A    between atoms: _358  and  _359
REMARK  160  A    between atoms: _358  and  _361
REMARK  161  A    between atoms: _361  and  _362
REMARK  162  A    between atoms: _368  and  _370
REMARK  163  A    between atoms: _370  and  _371
REMARK  164  A    between atoms: _370  and  _373
REMARK  165  A    between atoms: _373  and  _374
REMARK  166  A    between atoms: _374  and  _375
REMARK  167  A    between atoms: _377  and  _379
REMARK  168  A    between atoms: _379  and  _380
REMARK  169  A    between atoms: _379  and  _382
REMARK  170  A    between atoms: _382  and  _383
REMARK  171  A    between atoms: _388  and  _390
REMARK  172  A    between atoms: _390  and  _391
REMARK  173  A    between atoms: _390  and  _393
REMARK  174  A    between atoms: _393  and  _394
REMARK  175  A    between atoms: _394  and  _395
REMARK  176  A    between atoms: _395  and  _396
REMARK  177  A    between atoms: _396  and  _397
REMARK  178  A    between atoms: _402  and  _403
REMARK  179  A    between atoms: _408  and  _410
REMARK  180  A    between atoms: _410  and  _411
REMARK  181  A    between atoms: _410  and  _413
REMARK  182  A    between atoms: _413  and  _414
REMARK  183  A    between atoms: _414  and  _415
REMARK  184  A    between atoms: _420  and  _422
REMARK  185  A    between atoms: _422  and  _423
REMARK  186  A    between atoms: _422  and  _425
REMARK  187  A    between atoms: _425  and  _426
REMARK  188  A    between atoms: _431  and  _433
REMARK  189  A    between atoms: _433  and  _434
REMARK  190  A    between atoms: _433  and  _436
REMARK  191  A    between atoms: _436  and  _437
REMARK  192  A    between atoms: _440  and  _442
REMARK  193  A    between atoms: _442  and  _443
REMARK  194  A    between atoms: _442  and  _445
REMARK  195  A    between atoms: _445  and  _446
REMARK  196  A    between atoms: _449  and  _451
REMARK  197  A    between atoms: _451  and  _452
REMARK  198  A    between atoms: _451  and  _454
REMARK  199  A    between atoms: _454  and  _455
REMARK  200  A    between atoms: _458  and  _460
REMARK  201  A    between atoms: _460  and  _461
REMARK  202  A    between atoms: _460  and  _463
REMARK  203  A    between atoms: _463  and  _464
REMARK  204  A    between atoms: _464  and  _465
REMARK  205  A    between atoms: _465  and  _466
REMARK  206  A    between atoms: _466  and  _467
REMARK  207  A    between atoms: _471  and  _473
REMARK  208  A    between atoms: _473  and  _474
REMARK  209  A    between atoms: _473  and  _476
REMARK  210  A    between atoms: _476  and  _477
REMARK  211  A    between atoms: _480  and  _482
REMARK  212  A    between atoms: _482  and  _483
REMARK  213  A    between atoms: _486  and  _488
REMARK  214  A    between atoms: _488  and  _489
REMARK  215  A    between atoms: _488  and  _491
REMARK  216  A    between atoms: _491  and  _492
REMARK  217  A    between atoms: _495  and  _497
REMARK  218  A    between atoms: _497  and  _498
REMARK  219  A    between atoms: _497  and  _500
REMARK  220  A    between atoms: _500  and  _501
REMARK  221  A    between atoms: _507  and  _509
REMARK  222  A    between atoms: _509  and  _510
REMARK  223  A    between atoms: _509  and  _512
REMARK  224  A    between atoms: _512  and  _513
REMARK  225  A    between atoms: _516  and  _518
REMARK  226  A    between atoms: _518  and  _519
REMARK  227  A    between atoms: _518  and  _521
REMARK  228  A    between atoms: _521  and  _522
REMARK  229  A    between atoms: _522  and  _523
REMARK  230  A    between atoms: _523  and  _524
REMARK  231  A    between atoms: _533  and  _535
REMARK  232  A    between atoms: _535  and  _536
REMARK  233  A    between atoms: _535  and  _538
REMARK  234  A    between atoms: _538  and  _539
REMARK                            x       y       z     vdW  Elec       q    Type
REMARK                         _______ _______ _______ _____ _____    ______ ____
ROOT
ATOM      1  O   HOH     1      10.271  26.520   5.042  0.00  0.00    +0.000 OA
ENDROOT
TORSDOF 0
REMARK  Name = ../refined-set-2016/2fvd/2fvd_pocket.pdb
REMARK  234 active torsions:
REMARK  status: ('A' for Active; 'I' for Inactive)
REMARK    1  A    between atoms: _1  and  _3
REMARK    2  A    between atoms: _3  and  _4
REMARK    3  A    between atoms: _3  and  _6
REMARK    4  A    between atoms: _6  and  _7
REMARK    5  A    between atoms: _7  and  _8
REMARK    6  A    between atoms: _11  and  _13
REMARK    7  A    between atoms: _13  and  _14
REMARK    8  A    between atoms: _13  and  _16
REMARK    9  A    between atoms: _16  and  _17
REMARK   10  A    between atoms: _17  and  _18
REMARK   11  A    between atoms: _18  and  _19
REMARK   12  A    between atoms: _19  and  _20
REMARK   13  A    between atoms: _24  and  _26
REMARK   14  A    between atoms: _26  and  _27
REMARK   15  A    between atoms: _26  and  _29
REMARK   16  A    between atoms: _29  and  _30
REMARK   17  A    between atoms: _33  and  _35
REMARK   18  A    between atoms: _35  and  _36
REMARK   19  A    between atoms: _38  and  _40
REMARK   20  A    between atoms: _40  and  _41
REMARK   21  A    between atoms: _40  and  _43
REMARK   22  A    between atoms: _43  and  _44
REMARK   23  A    between atoms: _44  and  _45
REMARK   24  A    between atoms: _48  and  _50
REMARK   25  A    between atoms: _50  and  _51
REMARK   26  A    between atoms: _53  and  _55
REMARK   27  A    between atoms: _55  and  _56
REMARK   28  A    between atoms: _55  and  _58
REMARK   29  A    between atoms: _58  and  _59
REMARK   30  A    between atoms: _62  and  _64
REMARK   31  A    between atoms: _64  and  _65
REMARK   32  A    between atoms: _64  and  _67
REMARK   33  A    between atoms: _67  and  _68
REMARK   34  A    between atoms: _73  and  _74
REMARK   35  A    between atoms: _76  and  _78
REMARK   36  A    between atoms: _78  and  _79
REMARK   37  A    between atoms: _81  and  _83
REMARK   38  A    between atoms: _83  and  _84
REMARK   39  A    between atoms: _83  and  _86
REMARK   40  A    between atoms: _89  and  _91
REMARK   41  A    between atoms: _91  and  _92
REMARK   42  A    between atoms: _91  and  _94
REMARK   43  A    between atoms: _97  and  _99
REMARK   44  A    between atoms: _99  and  _100
REMARK   45  A    between atoms: _99  and  _102
REMARK   46  A    between atoms: _102  and  _103
REMARK   47  A    between atoms: _108  and  _109
REMARK   48  A    between atoms: _111  and  _113
REMARK   49  A    between atoms: _113  and  _114
REMARK   50  A    between atoms: _113  and  _116
REMARK   51  A    between atoms: _116  and  _117
REMARK   52  A    between atoms: _117  and  _118
REMARK   53  A    between atoms: _118  and  _119
REMARK   54  A    between atoms: _119  and  _120
REMARK   55  A    between atoms: _124  and  _126
REMARK   56  A    between atoms: _126  and  _127
REMARK   57  A    between atoms: _126  and  _129
REMARK   58  A    between atoms: _132  and  _134
REMARK   59  A    between atoms: _134  and  _135
REMARK   60  A    between atoms: _134  and  _137
REMARK   61  A    between atoms: _140  and  _142
REMARK   62  A    between atoms: _142  and  _143
REMARK   63  A    between atoms: _146  and  _148
REMARK   64  A    between atoms: _148  and  _149
REMARK   65  A    between atoms: _148  and  _151
REMARK   66  A    between atoms: _151  and  _152
REMARK   67  A    between atoms: _155  and  _157
REMARK   68  A    between atoms: _157  and  _158
REMARK   69  A    between atoms: _157  and  _160
REMARK   70  A    between atoms: _160  and  _161
REMARK   71  A    between atoms: _161  and  _162
REMARK   72  A    between atoms: _162  and  _163
REMARK   73  A    between atoms: _163  and  _164
REMARK   74  A    between atoms: _168  and  _170
REMARK   75  A    between atoms: _170  and  _171
REMARK   76  A    between atoms: _170  and  _173
REMARK   77  A    between atoms: _173  and  _174
REMARK   78  A    between atoms: _174  and  _175
REMARK   79  A    between atoms: _175  and  _176
REMARK   80  A    between atoms: _176  and  _177
REMARK   81  A    between atoms: _181  and  _183
REMARK   82  A    between atoms: _183  and  _184
REMARK   83  A    between atoms: _183  and  _186
REMARK   84  A    between atoms: _186  and  _187
REMARK   85  A    between atoms: _190  and  _192
REMARK   86  A    between atoms: _192  and  _193
REMARK   87  A    between atoms: _192  and  _195
REMARK   88  A    between atoms: _198  and  _200
REMARK   89  A    between atoms: _200  and  _201
REMARK   90  A    between atoms: _200  and  _203
REMARK   91  A    between atoms: _203  and  _204
REMARK   92  A    between atoms: _204  and  _205
REMARK   93  A    between atoms: _205  and  _206
REMARK   94  A    between atoms: _206  and  _207
REMARK   95  A    between atoms: _211  and  _213
REMARK   96  A    between atoms: _213  and  _214
REMARK   97  A    between atoms: _213  and  _216
REMARK   98  A    between atoms: _216  and  _217
REMARK   99  A    between atoms: _220  and  _222
REMARK  100  A    between atoms: _222  and  _223
REMARK  101  A    between atoms: _222  and  _225
REMARK  102  A    between atoms: _225  and  _226
REMARK  103  A    between atoms: _229  and  _231
REMARK  104  A    between atoms: _231  and  _232
REMARK  105  A    between atoms: _231  and  _234
REMARK  106  A    between atoms: _234  and  _235
REMARK  107  A    between atoms: _238  and  _240
REMARK  108  A    between atoms: _240  and  _241
REMARK  109  A    between atoms: _240  and  _243
REMARK  110  A    between atoms: _246  and  _248
REMARK  111  A    between atoms: _248  and  _249
REMARK  112  A    between atoms: _248  and  _251
REMARK  113  A    between atoms: _251  and  _252
REMARK  114  A    between atoms: _258  and  _260
REMARK  115  A    between atoms: _260  and  _261
REMARK  116  A    between atoms: _260  and  _263
REMARK  117  A    between atoms: _263  and  _264
REMARK  118  A    between atoms: _264  and  _265
REMARK  119  A    between atoms: _268  and  _270
REMARK  120  A    between atoms: _270  and  _271
REMARK  121  A    between atoms: _270  and  _273
REMARK  122  A    between atoms: _273  and  _274
REMARK  123  A    between atoms: _280  and  _282
REMARK  124  A    between atoms: _282  and  _283
REMARK  125  A    between atoms: _282  and  _285
REMARK  126  A    between atoms: _285  and  _286
REMARK  127  A    between atoms: _289  and  _291
REMARK  128  A    between atoms: _291  and  _292
REMARK  129  A    between atoms: _291  and  _294
REMARK  130  A    between atoms: _294  and  _295
REMARK  131  A    between atoms: _300  and  _302
REMARK  132  A    between atoms: _302  and  _303
REMARK  133  A    between atoms: _302  and  _305
REMARK  134  A    between atoms: _305  and  _306
REMARK  135  A    between atoms: _306  and  _307
REMARK  136  A    between atoms: _312  and  _314
REMARK  137  A    between atoms: _314  and  _315
REMARK  138  A    between atoms: _314  and  _317
REMARK  139  A    between atoms: _317  and  _318
REMARK  140  A    between atoms: _321  and  _323
REMARK  141  A    between atoms: _323  and  _324
REMARK  142  A    between atoms: _323  and  _326
REMARK  143  A    between atoms: _326  and  _327
REMARK  144  A    between atoms: _330  and  _332
REMARK  145  A    between atoms: _332  and  _333
REMARK  146  A    between atoms: _332  and  _335
REMARK  147  A    between atoms: _335  and  _336
REMARK  148  A    between atoms: _336  and  _337
REMARK  149  A    between atoms: _337  and  _338
REMARK  150  A    between atoms: _338  and  _339
REMARK  151  A    between atoms: _343  and  _345
REMARK  152  A    between atoms: _345  and  _346
REMARK  153  A    between atoms: _345  and  _348
REMARK  154  A    between atoms: _348  and  _349
REMARK  155  A    between atoms: _349  and  _350
REMARK  156  A    between atoms: _350  and  _351
REMARK  157  A    between atoms: _351  and  _352
REMARK  158  A    between atoms: _356  and  _358
REMARK  159  A    between atoms: _358  and  _359
REMARK  160  A    between atoms: _358  and  _361
REMARK  161  A    between atoms: _361  and  _362
REMARK  162  A    between atoms: _368  and  _370
REMARK  163  A    between atoms: _370  and  _371
REMARK  164  A    between atoms: _370  and  _373
REMARK  165  A    between atoms: _373  and  _374
REMARK  166  A    between atoms: _374  and  _375
REMARK  167  A    between atoms: _377  and  _379
REMARK  168  A    between atoms: _379  and  _380
REMARK  169  A    between atoms: _379  and  _382
REMARK  170  A    between atoms: _382  and  _383
REMARK  171  A    between atoms: _388  and  _390
REMARK  172  A    between atoms: _390  and  _391
REMARK  173  A    between atoms: _390  and  _393
REMARK  174  A    between atoms: _393  and  _394
REMARK  175  A    between atoms: _394  and  _395
REMARK  176  A    between atoms: _395  and  _396
REMARK  177  A    between atoms: _396  and  _397
REMARK  178  A    between atoms: _402  and  _403
REMARK  179  A    between atoms: _408  and  _410
REMARK  180  A    between atoms: _410  and  _411
REMARK  181  A    between atoms: _410  and  _413
REMARK  182  A    between atoms: _413  and  _414
REMARK  183  A    between atoms: _414  and  _415
REMARK  184  A    between atoms: _420  and  _422
REMARK  185  A    between atoms: _422  and  _423
REMARK  186  A    between atoms: _422  and  _425
REMARK  187  A    between atoms: _425  and  _426
REMARK  188  A    between atoms: _431  and  _433
REMARK  189  A    between atoms: _433  and  _434
REMARK  190  A    between atoms: _433  and  _436
REMARK  191  A    between atoms: _436  and  _437
REMARK  192  A    between atoms: _440  and  _442
REMARK  193  A    between atoms: _442  and  _443
REMARK  194  A    between atoms: _442  and  _445
REMARK  195  A    between atoms: _445  and  _446
REMARK  196  A    between atoms: _449  and  _451
REMARK  197  A    between atoms: _451  and  _452
REMARK  198  A    between atoms: _451  and  _454
REMARK  199  A    between atoms: _454  and  _455
REMARK  200  A    between atoms: _458  and  _460
REMARK  201  A    between atoms: _460  and  _461
REMARK  202  A    between atoms: _460  and  _463
REMARK  203  A    between atoms: _463  and  _464
REMARK  204  A    between atoms: _464  and  _465
REMARK  205  A    between atoms: _465  and  _466
REMARK  206  A    between atoms: _466  and  _467
REMARK  207  A    between atoms: _471  and  _473
REMARK  208  A    between atoms: _473  and  _474
REMARK  209  A    between atoms: _473  and  _476
REMARK  210  A    between atoms: _476  and  _477
REMARK  211  A    between atoms: _480  and  _482
REMARK  212  A    between atoms: _482  and  _483
REMARK  213  A    between atoms: _486  and  _488
REMARK  214  A    between atoms: _488  and  _489
REMARK  215  A    between atoms: _488  and  _491
REMARK  216  A    between atoms: _491  and  _492
REMARK  217  A    between atoms: _495  and  _497
REMARK  218  A    between atoms: _497  and  _498
REMARK  219  A    between atoms: _497  and  _500
REMARK  220  A    between atoms: _500  and  _501
REMARK  221  A    between atoms: _507  and  _509
REMARK  222  A    between atoms: _509  and  _510
REMARK  223  A    between atoms: _509  and  _512
REMARK  224  A    between atoms: _512  and  _513
REMARK  225  A    between atoms: _516  and  _518
REMARK  226  A    between atoms: _518  and  _519
REMARK  227  A    between atoms: _518  and  _521
REMARK  228  A    between atoms: _521  and  _522
REMARK  229  A    between atoms: _522  and  _523
REMARK  230  A    between atoms: _523  and  _524
REMARK  231  A    between atoms: _533  and  _535
REMARK  232  A    between atoms: _535  and  _536
REMARK  233  A    between atoms: _535  and  _538
REMARK  234  A    between atoms: _538  and  _539
REMARK                            x       y       z     vdW  Elec       q    Type
REMARK                         _______ _______ _______ _____ _____    ______ ____
ROOT
ATOM      1  O   HOH     1      10.429  26.580   2.442  0.00  0.00    +0.000 OA
ENDROOT
TORSDOF 0
REMARK  Name = ../refined-set-2016/2fvd/2fvd_pocket.pdb
REMARK  234 active torsions:
REMARK  status: ('A' for Active; 'I' for Inactive)
REMARK    1  A    between atoms: _1  and  _3
REMARK    2  A    between atoms: _3  and  _4
REMARK    3  A    between atoms: _3  and  _6
REMARK    4  A    between atoms: _6  and  _7
REMARK    5  A    between atoms: _7  and  _8
REMARK    6  A    between atoms: _11  and  _13
REMARK    7  A    between atoms: _13  and  _14
REMARK    8  A    between atoms: _13  and  _16
REMARK    9  A    between atoms: _16  and  _17
REMARK   10  A    between atoms: _17  and  _18
REMARK   11  A    between atoms: _18  and  _19
REMARK   12  A    between atoms: _19  and  _20
REMARK   13  A    between atoms: _24  and  _26
REMARK   14  A    between atoms: _26  and  _27
REMARK   15  A    between atoms: _26  and  _29
REMARK   16  A    between atoms: _29  and  _30
REMARK   17  A    between atoms: _33  and  _35
REMARK   18  A    between atoms: _35  and  _36
REMARK   19  A    between atoms: _38  and  _40
REMARK   20  A    between atoms: _40  and  _41
REMARK   21  A    between atoms: _40  and  _43
REMARK   22  A    between atoms: _43  and  _44
REMARK   23  A    between atoms: _44  and  _45
REMARK   24  A    between atoms: _48  and  _50
REMARK   25  A    between atoms: _50  and  _51
REMARK   26  A    between atoms: _53  and  _55
REMARK   27  A    between atoms: _55  and  _56
REMARK   28  A    between atoms: _55  and  _58
REMARK   29  A    between atoms: _58  and  _59
REMARK   30  A    between atoms: _62  and  _64
REMARK   31  A    between atoms: _64  and  _65
REMARK   32  A    between atoms: _64  and  _67
REMARK   33  A    between atoms: _67  and  _68
REMARK   34  A    between atoms: _73  and  _74
REMARK   35  A    between atoms: _76  and  _78
REMARK   36  A    between atoms: _78  and  _79
REMARK   37  A    between atoms: _81  and  _83
REMARK   38  A    between atoms: _83  and  _84
REMARK   39  A    between atoms: _83  and  _86
REMARK   40  A    between atoms: _89  and  _91
REMARK   41  A    between atoms: _91  and  _92
REMARK   42  A    between atoms: _91  and  _94
REMARK   43  A    between atoms: _97  and  _99
REMARK   44  A    between atoms: _99  and  _100
REMARK   45  A    between atoms: _99  and  _102
REMARK   46  A    between atoms: _102  and  _103
REMARK   47  A    between atoms: _108  and  _109
REMARK   48  A    between atoms: _111  and  _113
REMARK   49  A    between atoms: _113  and  _114
REMARK   50  A    between atoms: _113  and  _116
REMARK   51  A    between atoms: _116  and  _117
REMARK   52  A    between atoms: _117  and  _118
REMARK   53  A    between atoms: _118  and  _119
REMARK   54  A    between atoms: _119  and  _120
REMARK   55  A    between atoms: _124  and  _126
REMARK   56  A    between atoms: _126  and  _127
REMARK   57  A    between atoms: _126  and  _129
REMARK   58  A    between atoms: _132  and  _134
REMARK   59  A    between atoms: _134  and  _135
REMARK   60  A    between atoms: _134  and  _137
REMARK   61  A    between atoms: _140  and  _142
REMARK   62  A    between atoms: _142  and  _143
REMARK   63  A    between atoms: _146  and  _148
REMARK   64  A    between atoms: _148  and  _149
REMARK   65  A    between atoms: _148  and  _151
REMARK   66  A    between atoms: _151  and  _152
REMARK   67  A    between atoms: _155  and  _157
REMARK   68  A    between atoms: _157  and  _158
REMARK   69  A    between atoms: _157  and  _160
REMARK   70  A    between atoms: _160  and  _161
REMARK   71  A    between atoms: _161  and  _162
REMARK   72  A    between atoms: _162  and  _163
REMARK   73  A    between atoms: _163  and  _164
REMARK   74  A    between atoms: _168  and  _170
REMARK   75  A    between atoms: _170  and  _171
REMARK   76  A    between atoms: _170  and  _173
REMARK   77  A    between atoms: _173  and  _174
REMARK   78  A    between atoms: _174  and  _175
REMARK   79  A    between atoms: _175  and  _176
REMARK   80  A    between atoms: _176  and  _177
REMARK   81  A    between atoms: _181  and  _183
REMARK   82  A    between atoms: _183  and  _184
REMARK   83  A    between atoms: _183  and  _186
REMARK   84  A    between atoms: _186  and  _187
REMARK   85  A    between atoms: _190  and  _192
REMARK   86  A    between atoms: _192  and  _193
REMARK   87  A    between atoms: _192  and  _195
REMARK   88  A    between atoms: _198  and  _200
REMARK   89  A    between atoms: _200  and  _201
REMARK   90  A    between atoms: _200  and  _203
REMARK   91  A    between atoms: _203  and  _204
REMARK   92  A    between atoms: _204  and  _205
REMARK   93  A    between atoms: _205  and  _206
REMARK   94  A    between atoms: _206  and  _207
REMARK   95  A    between atoms: _211  and  _213
REMARK   96  A    between atoms: _213  and  _214
REMARK   97  A    between atoms: _213  and  _216
REMARK   98  A    between atoms: _216  and  _217
REMARK   99  A    between atoms: _220  and  _222
REMARK  100  A    between atoms: _222  and  _223
REMARK  101  A    between atoms: _222  and  _225
REMARK  102  A    between atoms: _225  and  _226
REMARK  103  A    between atoms: _229  and  _231
REMARK  104  A    between atoms: _231  and  _232
REMARK  105  A    between atoms: _231  and  _234
REMARK  106  A    between atoms: _234  and  _235
REMARK  107  A    between atoms: _238  and  _240
REMARK  108  A    between atoms: _240  and  _241
REMARK  109  A    between atoms: _240  and  _243
REMARK  110  A    between atoms: _246  and  _248
REMARK  111  A    between atoms: _248  and  _249
REMARK  112  A    between atoms: _248  and  _251
REMARK  113  A    between atoms: _251  and  _252
REMARK  114  A    between atoms: _258  and  _260
REMARK  115  A    between atoms: _260  and  _261
REMARK  116  A    between atoms: _260  and  _263
REMARK  117  A    between atoms: _263  and  _264
REMARK  118  A    between atoms: _264  and  _265
REMARK  119  A    between atoms: _268  and  _270
REMARK  120  A    between atoms: _270  and  _271
REMARK  121  A    between atoms: _270  and  _273
REMARK  122  A    between atoms: _273  and  _274
REMARK  123  A    between atoms: _280  and  _282
REMARK  124  A    between atoms: _282  and  _283
REMARK  125  A    between atoms: _282  and  _285
REMARK  126  A    between atoms: _285  and  _286
REMARK  127  A    between atoms: _289  and  _291
REMARK  128  A    between atoms: _291  and  _292
REMARK  129  A    between atoms: _291  and  _294
REMARK  130  A    between atoms: _294  and  _295
REMARK  131  A    between atoms: _300  and  _302
REMARK  132  A    between atoms: _302  and  _303
REMARK  133  A    between atoms: _302  and  _305
REMARK  134  A    between atoms: _305  and  _306
REMARK  135  A    between atoms: _306  and  _307
REMARK  136  A    between atoms: _312  and  _314
REMARK  137  A    between atoms: _314  and  _315
REMARK  138  A    between atoms: _314  and  _317
REMARK  139  A    between atoms: _317  and  _318
REMARK  140  A    between atoms: _321  and  _323
REMARK  141  A    between atoms: _323  and  _324
REMARK  142  A    between atoms: _323  and  _326
REMARK  143  A    between atoms: _326  and  _327
REMARK  144  A    between atoms: _330  and  _332
REMARK  145  A    between atoms: _332  and  _333
REMARK  146  A    between atoms: _332  and  _335
REMARK  147  A    between atoms: _335  and  _336
REMARK  148  A    between atoms: _336  and  _337
REMARK  149  A    between atoms: _337  and  _338
REMARK  150  A    between atoms: _338  and  _339
REMARK  151  A    between atoms: _343  and  _345
REMARK  152  A    between atoms: _345  and  _346
REMARK  153  A    between atoms: _345  and  _348
REMARK  154  A    between atoms: _348  and  _349
REMARK  155  A    between atoms: _349  and  _350
REMARK  156  A    between atoms: _350  and  _351
REMARK  157  A    between atoms: _351  and  _352
REMARK  158  A    between atoms: _356  and  _358
REMARK  159  A    between atoms: _358  and  _359
REMARK  160  A    between atoms: _358  and  _361
REMARK  161  A    between atoms: _361  and  _362
REMARK  162  A    between atoms: _368  and  _370
REMARK  163  A    between atoms: _370  and  _371
REMARK  164  A    between atoms: _370  and  _373
REMARK  165  A    between atoms: _373  and  _374
REMARK  166  A    between atoms: _374  and  _375
REMARK  167  A    between atoms: _377  and  _379
REMARK  168  A    between atoms: _379  and  _380
REMARK  169  A    between atoms: _379  and  _382
REMARK  170  A    between atoms: _382  and  _383
REMARK  171  A    between atoms: _388  and  _390
REMARK  172  A    between atoms: _390  and  _391
REMARK  173  A    between atoms: _390  and  _393
REMARK  174  A    between atoms: _393  and  _394
REMARK  175  A    between atoms: _394  and  _395
REMARK  176  A    between atoms: _395  and  _396
REMARK  177  A    between atoms: _396  and  _397
REMARK  178  A    between atoms: _402  and  _403
REMARK  179  A    between atoms: _408  and  _410
REMARK  180  A    between atoms: _410  and  _411
REMARK  181  A    between atoms: _410  and  _413
REMARK  182  A    between atoms: _413  and  _414
REMARK  183  A    between atoms: _414  and  _415
REMARK  184  A    between atoms: _420  and  _422
REMARK  185  A    between atoms: _422  and  _423
REMARK  186  A    between atoms: _422  and  _425
REMARK  187  A    between atoms: _425  and  _426
REMARK  188  A    between atoms: _431  and  _433
REMARK  189  A    between atoms: _433  and  _434
REMARK  190  A    between atoms: _433  and  _436
REMARK  191  A    between atoms: _436  and  _437
REMARK  192  A    between atoms: _440  and  _442
REMARK  193  A    between atoms: _442  and  _443
REMARK  194  A    between atoms: _442  and  _445
REMARK  195  A    between atoms: _445  and  _446
REMARK  196  A    between atoms: _449  and  _451
REMARK  197  A    between atoms: _451  and  _452
REMARK  198  A    between atoms: _451  and  _454
REMARK  199  A    between atoms: _454  and  _455
REMARK  200  A    between atoms: _458  and  _460
REMARK  201  A    between atoms: _460  and  _461
REMARK  202  A    between atoms: _460  and  _463
REMARK  203  A    between atoms: _463  and  _464
REMARK  204  A    between atoms: _464  and  _465
REMARK  205  A    between atoms: _465  and  _466
REMARK  206  A    between atoms: _466  and  _467
REMARK  207  A    between atoms: _471  and  _473
REMARK  208  A    between atoms: _473  and  _474
REMARK  209  A    between atoms: _473  and  _476
REMARK  210  A    between atoms: _476  and  _477
REMARK  211  A    between atoms: _480  and  _482
REMARK  212  A    between atoms: _482  and  _483
REMARK  213  A    between atoms: _486  and  _488
REMARK  214  A    between atoms: _488  and  _489
REMARK  215  A    between atoms: _488  and  _491
REMARK  216  A    between atoms: _491  and  _492
REMARK  217  A    between atoms: _495  and  _497
REMARK  218  A    between atoms: _497  and  _498
REMARK  219  A    between atoms: _497  and  _500
REMARK  220  A    between atoms: _500  and  _501
REMARK  221  A    between atoms: _507  and  _509
REMARK  222  A    between atoms: _509  and  _510
REMARK  223  A    between atoms: _509  and  _512
REMARK  224  A    between atoms: _512  and  _513
REMARK  225  A    between atoms: _516  and  _518
REMARK  226  A    between atoms: _518  and  _519
REMARK  227  A    between atoms: _518  and  _521
REMARK  228  A    between atoms: _521  and  _522
REMARK  229  A    between atoms: _522  and  _523
REMARK  230  A    between atoms: _523  and  _524
REMARK  231  A    between atoms: _533  and  _535
REMARK  232  A    between atoms: _535  and  _536
REMARK  233  A    between atoms: _535  and  _538
REMARK  234  A    between atoms: _538  and  _539
REMARK                            x       y       z     vdW  Elec       q    Type
REMARK                         _______ _______ _______ _____ _____    ______ ____
ROOT
ATOM      1  O   HOH     1      -4.620  34.444  13.935  0.00  0.00    +0.000 OA
ENDROOT
TORSDOF 0
REMARK  Name = ../refined-set-2016/2fvd/2fvd_pocket.pdb
REMARK  234 active torsions:
REMARK  status: ('A' for Active; 'I' for Inactive)
REMARK    1  A    between atoms: _1  and  _3
REMARK    2  A    between atoms: _3  and  _4
REMARK    3  A    between atoms: _3  and  _6
REMARK    4  A    between atoms: _6  and  _7
REMARK    5  A    between atoms: _7  and  _8
REMARK    6  A    between atoms: _11  and  _13
REMARK    7  A    between atoms: _13  and  _14
REMARK    8  A    between atoms: _13  and  _16
REMARK    9  A    between atoms: _16  and  _17
REMARK   10  A    between atoms: _17  and  _18
REMARK   11  A    between atoms: _18  and  _19
REMARK   12  A    between atoms: _19  and  _20
REMARK   13  A    between atoms: _24  and  _26
REMARK   14  A    between atoms: _26  and  _27
REMARK   15  A    between atoms: _26  and  _29
REMARK   16  A    between atoms: _29  and  _30
REMARK   17  A    between atoms: _33  and  _35
REMARK   18  A    between atoms: _35  and  _36
REMARK   19  A    between atoms: _38  and  _40
REMARK   20  A    between atoms: _40  and  _41
REMARK   21  A    between atoms: _40  and  _43
REMARK   22  A    between atoms: _43  and  _44
REMARK   23  A    between atoms: _44  and  _45
REMARK   24  A    between atoms: _48  and  _50
REMARK   25  A    between atoms: _50  and  _51
REMARK   26  A    between atoms: _53  and  _55
REMARK   27  A    between atoms: _55  and  _56
REMARK   28  A    between atoms: _55  and  _58
REMARK   29  A    between atoms: _58  and  _59
REMARK   30  A    between atoms: _62  and  _64
REMARK   31  A    between atoms: _64  and  _65
REMARK   32  A    between atoms: _64  and  _67
REMARK   33  A    between atoms: _67  and  _68
REMARK   34  A    between atoms: _73  and  _74
REMARK   35  A    between atoms: _76  and  _78
REMARK   36  A    between atoms: _78  and  _79
REMARK   37  A    between atoms: _81  and  _83
REMARK   38  A    between atoms: _83  and  _84
REMARK   39  A    between atoms: _83  and  _86
REMARK   40  A    between atoms: _89  and  _91
REMARK   41  A    between atoms: _91  and  _92
REMARK   42  A    between atoms: _91  and  _94
REMARK   43  A    between atoms: _97  and  _99
REMARK   44  A    between atoms: _99  and  _100
REMARK   45  A    between atoms: _99  and  _102
REMARK   46  A    between atoms: _102  and  _103
REMARK   47  A    between atoms: _108  and  _109
REMARK   48  A    between atoms: _111  and  _113
REMARK   49  A    between atoms: _113  and  _114
REMARK   50  A    between atoms: _113  and  _116
REMARK   51  A    between atoms: _116  and  _117
REMARK   52  A    between atoms: _117  and  _118
REMARK   53  A    between atoms: _118  and  _119
REMARK   54  A    between atoms: _119  and  _120
REMARK   55  A    between atoms: _124  and  _126
REMARK   56  A    between atoms: _126  and  _127
REMARK   57  A    between atoms: _126  and  _129
REMARK   58  A    between atoms: _132  and  _134
REMARK   59  A    between atoms: _134  and  _135
REMARK   60  A    between atoms: _134  and  _137
REMARK   61  A    between atoms: _140  and  _142
REMARK   62  A    between atoms: _142  and  _143
REMARK   63  A    between atoms: _146  and  _148
REMARK   64  A    between atoms: _148  and  _149
REMARK   65  A    between atoms: _148  and  _151
REMARK   66  A    between atoms: _151  and  _152
REMARK   67  A    between atoms: _155  and  _157
REMARK   68  A    between atoms: _157  and  _158
REMARK   69  A    between atoms: _157  and  _160
REMARK   70  A    between atoms: _160  and  _161
REMARK   71  A    between atoms: _161  and  _162
REMARK   72  A    between atoms: _162  and  _163
REMARK   73  A    between atoms: _163  and  _164
REMARK   74  A    between atoms: _168  and  _170
REMARK   75  A    between atoms: _170  and  _171
REMARK   76  A    between atoms: _170  and  _173
REMARK   77  A    between atoms: _173  and  _174
REMARK   78  A    between atoms: _174  and  _175
REMARK   79  A    between atoms: _175  and  _176
REMARK   80  A    between atoms: _176  and  _177
REMARK   81  A    between atoms: _181  and  _183
REMARK   82  A    between atoms: _183  and  _184
REMARK   83  A    between atoms: _183  and  _186
REMARK   84  A    between atoms: _186  and  _187
REMARK   85  A    between atoms: _190  and  _192
REMARK   86  A    between atoms: _192  and  _193
REMARK   87  A    between atoms: _192  and  _195
REMARK   88  A    between atoms: _198  and  _200
REMARK   89  A    between atoms: _200  and  _201
REMARK   90  A    between atoms: _200  and  _203
REMARK   91  A    between atoms: _203  and  _204
REMARK   92  A    between atoms: _204  and  _205
REMARK   93  A    between atoms: _205  and  _206
REMARK   94  A    between atoms: _206  and  _207
REMARK   95  A    between atoms: _211  and  _213
REMARK   96  A    between atoms: _213  and  _214
REMARK   97  A    between atoms: _213  and  _216
REMARK   98  A    between atoms: _216  and  _217
REMARK   99  A    between atoms: _220  and  _222
REMARK  100  A    between atoms: _222  and  _223
REMARK  101  A    between atoms: _222  and  _225
REMARK  102  A    between atoms: _225  and  _226
REMARK  103  A    between atoms: _229  and  _231
REMARK  104  A    between atoms: _231  and  _232
REMARK  105  A    between atoms: _231  and  _234
REMARK  106  A    between atoms: _234  and  _235
REMARK  107  A    between atoms: _238  and  _240
REMARK  108  A    between atoms: _240  and  _241
REMARK  109  A    between atoms: _240  and  _243
REMARK  110  A    between atoms: _246  and  _248
REMARK  111  A    between atoms: _248  and  _249
REMARK  112  A    between atoms: _248  and  _251
REMARK  113  A    between atoms: _251  and  _252
REMARK  114  A    between atoms: _258  and  _260
REMARK  115  A    between atoms: _260  and  _261
REMARK  116  A    between atoms: _260  and  _263
REMARK  117  A    between atoms: _263  and  _264
REMARK  118  A    between atoms: _264  and  _265
REMARK  119  A    between atoms: _268  and  _270
REMARK  120  A    between atoms: _270  and  _271
REMARK  121  A    between atoms: _270  and  _273
REMARK  122  A    between atoms: _273  and  _274
REMARK  123  A    between atoms: _280  and  _282
REMARK  124  A    between atoms: _282  and  _283
REMARK  125  A    between atoms: _282  and  _285
REMARK  126  A    between atoms: _285  and  _286
REMARK  127  A    between atoms: _289  and  _291
REMARK  128  A    between atoms: _291  and  _292
REMARK  129  A    between atoms: _291  and  _294
REMARK  130  A    between atoms: _294  and  _295
REMARK  131  A    between atoms: _300  and  _302
REMARK  132  A    between atoms: _302  and  _303
REMARK  133  A    between atoms: _302  and  _305
REMARK  134  A    between atoms: _305  and  _306
REMARK  135  A    between atoms: _306  and  _307
REMARK  136  A    between atoms: _312  and  _314
REMARK  137  A    between atoms: _314  and  _315
REMARK  138  A    between atoms: _314  and  _317
REMARK  139  A    between atoms: _317  and  _318
REMARK  140  A    between atoms: _321  and  _323
REMARK  141  A    between atoms: _323  and  _324
REMARK  142  A    between atoms: _323  and  _326
REMARK  143  A    between atoms: _326  and  _327
REMARK  144  A    between atoms: _330  and  _332
REMARK  145  A    between atoms: _332  and  _333
REMARK  146  A    between atoms: _332  and  _335
REMARK  147  A    between atoms: _335  and  _336
REMARK  148  A    between atoms: _336  and  _337
REMARK  149  A    between atoms: _337  and  _338
REMARK  150  A    between atoms: _338  and  _339
REMARK  151  A    between atoms: _343  and  _345
REMARK  152  A    between atoms: _345  and  _346
REMARK  153  A    between atoms: _345  and  _348
REMARK  154  A    between atoms: _348  and  _349
REMARK  155  A    between atoms: _349  and  _350
REMARK  156  A    between atoms: _350  and  _351
REMARK  157  A    between atoms: _351  and  _352
REMARK  158  A    between atoms: _356  and  _358
REMARK  159  A    between atoms: _358  and  _359
REMARK  160  A    between atoms: _358  and  _361
REMARK  161  A    between atoms: _361  and  _362
REMARK  162  A    between atoms: _368  and  _370
REMARK  163  A    between atoms: _370  and  _371
REMARK  164  A    between atoms: _370  and  _373
REMARK  165  A    between atoms: _373  and  _374
REMARK  166  A    between atoms: _374  and  _375
REMARK  167  A    between atoms: _377  and  _379
REMARK  168  A    between atoms: _379  and  _380
REMARK  169  A    between atoms: _379  and  _382
REMARK  170  A    between atoms: _382  and  _383
REMARK  171  A    between atoms: _388  and  _390
REMARK  172  A    between atoms: _390  and  _391
REMARK  173  A    between atoms: _390  and  _393
REMARK  174  A    between atoms: _393  and  _394
REMARK  175  A    between atoms: _394  and  _395
REMARK  176  A    between atoms: _395  and  _396
REMARK  177  A    between atoms: _396  and  _397
REMARK  178  A    between atoms: _402  and  _403
REMARK  179  A    between atoms: _408  and  _410
REMARK  180  A    between atoms: _410  and  _411
REMARK  181  A    between atoms: _410  and  _413
REMARK  182  A    between atoms: _413  and  _414
REMARK  183  A    between atoms: _414  and  _415
REMARK  184  A    between atoms: _420  and  _422
REMARK  185  A    between atoms: _422  and  _423
REMARK  186  A    between atoms: _422  and  _425
REMARK  187  A    between atoms: _425  and  _426
REMARK  188  A    between atoms: _431  and  _433
REMARK  189  A    between atoms: _433  and  _434
REMARK  190  A    between atoms: _433  and  _436
REMARK  191  A    between atoms: _436  and  _437
REMARK  192  A    between atoms: _440  and  _442
REMARK  193  A    between atoms: _442  and  _443
REMARK  194  A    between atoms: _442  and  _445
REMARK  195  A    between atoms: _445  and  _446
REMARK  196  A    between atoms: _449  and  _451
REMARK  197  A    between atoms: _451  and  _452
REMARK  198  A    between atoms: _451  and  _454
REMARK  199  A    between atoms: _454  and  _455
REMARK  200  A    between atoms: _458  and  _460
REMARK  201  A    between atoms: _460  and  _461
REMARK  202  A    between atoms: _460  and  _463
REMARK  203  A    between atoms: _463  and  _464
REMARK  204  A    between atoms: _464  and  _465
REMARK  205  A    between atoms: _465  and  _466
REMARK  206  A    between atoms: _466  and  _467
REMARK  207  A    between atoms: _471  and  _473
REMARK  208  A    between atoms: _473  and  _474
REMARK  209  A    between atoms: _473  and  _476
REMARK  210  A    between atoms: _476  and  _477
REMARK  211  A    between atoms: _480  and  _482
REMARK  212  A    between atoms: _482  and  _483
REMARK  213  A    between atoms: _486  and  _488
REMARK  214  A    between atoms: _488  and  _489
REMARK  215  A    between atoms: _488  and  _491
REMARK  216  A    between atoms: _491  and  _492
REMARK  217  A    between atoms: _495  and  _497
REMARK  218  A    between atoms: _497  and  _498
REMARK  219  A    between atoms: _497  and  _500
REMARK  220  A    between atoms: _500  and  _501
REMARK  221  A    between atoms: _507  and  _509
REMARK  222  A    between atoms: _509  and  _510
REMARK  223  A    between atoms: _509  and  _512
REMARK  224  A    between atoms: _512  and  _513
REMARK  225  A    between atoms: _516  and  _518
REMARK  226  A    between atoms: _518  and  _519
REMARK  227  A    between atoms: _518  and  _521
REMARK  228  A    between atoms: _521  and  _522
REMARK  229  A    between atoms: _522  and  _523
REMARK  230  A    between atoms: _523  and  _524
REMARK  231  A    between atoms: _533  and  _535
REMARK  232  A    between atoms: _535  and  _536
REMARK  233  A    between atoms: _535  and  _538
REMARK  234  A    between atoms: _538  and  _539
REMARK                            x       y       z     vdW  Elec       q    Type
REMARK                         _______ _______ _______ _____ _____    ______ ____
ROOT
ATOM      1  O   HOH     1      15.554  27.062   7.836  0.00  0.00    +0.000 OA
ENDROOT
TORSDOF 0
REMARK  Name = ../refined-set-2016/2fvd/2fvd_pocket.pdb
REMARK  234 active torsions:
REMARK  status: ('A' for Active; 'I' for Inactive)
REMARK    1  A    between atoms: _1  and  _3
REMARK    2  A    between atoms: _3  and  _4
REMARK    3  A    between atoms: _3  and  _6
REMARK    4  A    between atoms: _6  and  _7
REMARK    5  A    between atoms: _7  and  _8
REMARK    6  A    between atoms: _11  and  _13
REMARK    7  A    between atoms: _13  and  _14
REMARK    8  A    between atoms: _13  and  _16
REMARK    9  A    between atoms: _16  and  _17
REMARK   10  A    between atoms: _17  and  _18
REMARK   11  A    between atoms: _18  and  _19
REMARK   12  A    between atoms: _19  and  _20
REMARK   13  A    between atoms: _24  and  _26
REMARK   14  A    between atoms: _26  and  _27
REMARK   15  A    between atoms: _26  and  _29
REMARK   16  A    between atoms: _29  and  _30
REMARK   17  A    between atoms: _33  and  _35
REMARK   18  A    between atoms: _35  and  _36
REMARK   19  A    between atoms: _38  and  _40
REMARK   20  A    between atoms: _40  and  _41
REMARK   21  A    between atoms: _40  and  _43
REMARK   22  A    between atoms: _43  and  _44
REMARK   23  A    between atoms: _44  and  _45
REMARK   24  A    between atoms: _48  and  _50
REMARK   25  A    between atoms: _50  and  _51
REMARK   26  A    between atoms: _53  and  _55
REMARK   27  A    between atoms: _55  and  _56
REMARK   28  A    between atoms: _55  and  _58
REMARK   29  A    between atoms: _58  and  _59
REMARK   30  A    between atoms: _62  and  _64
REMARK   31  A    between atoms: _64  and  _65
REMARK   32  A    between atoms: _64  and  _67
REMARK   33  A    between atoms: _67  and  _68
REMARK   34  A    between atoms: _73  and  _74
REMARK   35  A    between atoms: _76  and  _78
REMARK   36  A    between atoms: _78  and  _79
REMARK   37  A    between atoms: _81  and  _83
REMARK   38  A    between atoms: _83  and  _84
REMARK   39  A    between atoms: _83  and  _86
REMARK   40  A    between atoms: _89  and  _91
REMARK   41  A    between atoms: _91  and  _92
REMARK   42  A    between atoms: _91  and  _94
REMARK   43  A    between atoms: _97  and  _99
REMARK   44  A    between atoms: _99  and  _100
REMARK   45  A    between atoms: _99  and  _102
REMARK   46  A    between atoms: _102  and  _103
REMARK   47  A    between atoms: _108  and  _109
REMARK   48  A    between atoms: _111  and  _113
REMARK   49  A    between atoms: _113  and  _114
REMARK   50  A    between atoms: _113  and  _116
REMARK   51  A    between atoms: _116  and  _117
REMARK   52  A    between atoms: _117  and  _118
REMARK   53  A    between atoms: _118  and  _119
REMARK   54  A    between atoms: _119  and  _120
REMARK   55  A    between atoms: _124  and  _126
REMARK   56  A    between atoms: _126  and  _127
REMARK   57  A    between atoms: _126  and  _129
REMARK   58  A    between atoms: _132  and  _134
REMARK   59  A    between atoms: _134  and  _135
REMARK   60  A    between atoms: _134  and  _137
REMARK   61  A    between atoms: _140  and  _142
REMARK   62  A    between atoms: _142  and  _143
REMARK   63  A    between atoms: _146  and  _148
REMARK   64  A    between atoms: _148  and  _149
REMARK   65  A    between atoms: _148  and  _151
REMARK   66  A    between atoms: _151  and  _152
REMARK   67  A    between atoms: _155  and  _157
REMARK   68  A    between atoms: _157  and  _158
REMARK   69  A    between atoms: _157  and  _160
REMARK   70  A    between atoms: _160  and  _161
REMARK   71  A    between atoms: _161  and  _162
REMARK   72  A    between atoms: _162  and  _163
REMARK   73  A    between atoms: _163  and  _164
REMARK   74  A    between atoms: _168  and  _170
REMARK   75  A    between atoms: _170  and  _171
REMARK   76  A    between atoms: _170  and  _173
REMARK   77  A    between atoms: _173  and  _174
REMARK   78  A    between atoms: _174  and  _175
REMARK   79  A    between atoms: _175  and  _176
REMARK   80  A    between atoms: _176  and  _177
REMARK   81  A    between atoms: _181  and  _183
REMARK   82  A    between atoms: _183  and  _184
REMARK   83  A    between atoms: _183  and  _186
REMARK   84  A    between atoms: _186  and  _187
REMARK   85  A    between atoms: _190  and  _192
REMARK   86  A    between atoms: _192  and  _193
REMARK   87  A    between atoms: _192  and  _195
REMARK   88  A    between atoms: _198  and  _200
REMARK   89  A    between atoms: _200  and  _201
REMARK   90  A    between atoms: _200  and  _203
REMARK   91  A    between atoms: _203  and  _204
REMARK   92  A    between atoms: _204  and  _205
REMARK   93  A    between atoms: _205  and  _206
REMARK   94  A    between atoms: _206  and  _207
REMARK   95  A    between atoms: _211  and  _213
REMARK   96  A    between atoms: _213  and  _214
REMARK   97  A    between atoms: _213  and  _216
REMARK   98  A    between atoms: _216  and  _217
REMARK   99  A    between atoms: _220  and  _222
REMARK  100  A    between atoms: _222  and  _223
REMARK  101  A    between atoms: _222  and  _225
REMARK  102  A    between atoms: _225  and  _226
REMARK  103  A    between atoms: _229  and  _231
REMARK  104  A    between atoms: _231  and  _232
REMARK  105  A    between atoms: _231  and  _234
REMARK  106  A    between atoms: _234  and  _235
REMARK  107  A    between atoms: _238  and  _240
REMARK  108  A    between atoms: _240  and  _241
REMARK  109  A    between atoms: _240  and  _243
REMARK  110  A    between atoms: _246  and  _248
REMARK  111  A    between atoms: _248  and  _249
REMARK  112  A    between atoms: _248  and  _251
REMARK  113  A    between atoms: _251  and  _252
REMARK  114  A    between atoms: _258  and  _260
REMARK  115  A    between atoms: _260  and  _261
REMARK  116  A    between atoms: _260  and  _263
REMARK  117  A    between atoms: _263  and  _264
REMARK  118  A    between atoms: _264  and  _265
REMARK  119  A    between atoms: _268  and  _270
REMARK  120  A    between atoms: _270  and  _271
REMARK  121  A    between atoms: _270  and  _273
REMARK  122  A    between atoms: _273  and  _274
REMARK  123  A    between atoms: _280  and  _282
REMARK  124  A    between atoms: _282  and  _283
REMARK  125  A    between atoms: _282  and  _285
REMARK  126  A    between atoms: _285  and  _286
REMARK  127  A    between atoms: _289  and  _291
REMARK  128  A    between atoms: _291  and  _292
REMARK  129  A    between atoms: _291  and  _294
REMARK  130  A    between atoms: _294  and  _295
REMARK  131  A    between atoms: _300  and  _302
REMARK  132  A    between atoms: _302  and  _303
REMARK  133  A    between atoms: _302  and  _305
REMARK  134  A    between atoms: _305  and  _306
REMARK  135  A    between atoms: _306  and  _307
REMARK  136  A    between atoms: _312  and  _314
REMARK  137  A    between atoms: _314  and  _315
REMARK  138  A    between atoms: _314  and  _317
REMARK  139  A    between atoms: _317  and  _318
REMARK  140  A    between atoms: _321  and  _323
REMARK  141  A    between atoms: _323  and  _324
REMARK  142  A    between atoms: _323  and  _326
REMARK  143  A    between atoms: _326  and  _327
REMARK  144  A    between atoms: _330  and  _332
REMARK  145  A    between atoms: _332  and  _333
REMARK  146  A    between atoms: _332  and  _335
REMARK  147  A    between atoms: _335  and  _336
REMARK  148  A    between atoms: _336  and  _337
REMARK  149  A    between atoms: _337  and  _338
REMARK  150  A    between atoms: _338  and  _339
REMARK  151  A    between atoms: _343  and  _345
REMARK  152  A    between atoms: _345  and  _346
REMARK  153  A    between atoms: _345  and  _348
REMARK  154  A    between atoms: _348  and  _349
REMARK  155  A    between atoms: _349  and  _350
REMARK  156  A    between atoms: _350  and  _351
REMARK  157  A    between atoms: _351  and  _352
REMARK  158  A    between atoms: _356  and  _358
REMARK  159  A    between atoms: _358  and  _359
REMARK  160  A    between atoms: _358  and  _361
REMARK  161  A    between atoms: _361  and  _362
REMARK  162  A    between atoms: _368  and  _370
REMARK  163  A    between atoms: _370  and  _371
REMARK  164  A    between atoms: _370  and  _373
REMARK  165  A    between atoms: _373  and  _374
REMARK  166  A    between atoms: _374  and  _375
REMARK  167  A    between atoms: _377  and  _379
REMARK  168  A    between atoms: _379  and  _380
REMARK  169  A    between atoms: _379  and  _382
REMARK  170  A    between atoms: _382  and  _383
REMARK  171  A    between atoms: _388  and  _390
REMARK  172  A    between atoms: _390  and  _391
REMARK  173  A    between atoms: _390  and  _393
REMARK  174  A    between atoms: _393  and  _394
REMARK  175  A    between atoms: _394  and  _395
REMARK  176  A    between atoms: _395  and  _396
REMARK  177  A    between atoms: _396  and  _397
REMARK  178  A    between atoms: _402  and  _403
REMARK  179  A    between atoms: _408  and  _410
REMARK  180  A    between atoms: _410  and  _411
REMARK  181  A    between atoms: _410  and  _413
REMARK  182  A    between atoms: _413  and  _414
REMARK  183  A    between atoms: _414  and  _415
REMARK  184  A    between atoms: _420  and  _422
REMARK  185  A    between atoms: _422  and  _423
REMARK  186  A    between atoms: _422  and  _425
REMARK  187  A    between atoms: _425  and  _426
REMARK  188  A    between atoms: _431  and  _433
REMARK  189  A    between atoms: _433  and  _434
REMARK  190  A    between atoms: _433  and  _436
REMARK  191  A    between atoms: _436  and  _437
REMARK  192  A    between atoms: _440  and  _442
REMARK  193  A    between atoms: _442  and  _443
REMARK  194  A    between atoms: _442  and  _445
REMARK  195  A    between atoms: _445  and  _446
REMARK  196  A    between atoms: _449  and  _451
REMARK  197  A    between atoms: _451  and  _452
REMARK  198  A    between atoms: _451  and  _454
REMARK  199  A    between atoms: _454  and  _455
REMARK  200  A    between atoms: _458  and  _460
REMARK  201  A    between atoms: _460  and  _461
REMARK  202  A    between atoms: _460  and  _463
REMARK  203  A    between atoms: _463  and  _464
REMARK  204  A    between atoms: _464  and  _465
REMARK  205  A    between atoms: _465  and  _466
REMARK  206  A    between atoms: _466  and  _467
REMARK  207  A    between atoms: _471  and  _473
REMARK  208  A    between atoms: _473  and  _474
REMARK  209  A    between atoms: _473  and  _476
REMARK  210  A    between atoms: _476  and  _477
REMARK  211  A    between atoms: _480  and  _482
REMARK  212  A    between atoms: _482  and  _483
REMARK  213  A    between atoms: _486  and  _488
REMARK  214  A    between atoms: _488  and  _489
REMARK  215  A    between atoms: _488  and  _491
REMARK  216  A    between atoms: _491  and  _492
REMARK  217  A    between atoms: _495  and  _497
REMARK  218  A    between atoms: _497  and  _498
REMARK  219  A    between atoms: _497  and  _500
REMARK  220  A    between atoms: _500  and  _501
REMARK  221  A    between atoms: _507  and  _509
REMARK  222  A    between atoms: _509  and  _510
REMARK  223  A    between atoms: _509  and  _512
REMARK  224  A    between atoms: _512  and  _513
REMARK  225  A    between atoms: _516  and  _518
REMARK  226  A    between atoms: _518  and  _519
REMARK  227  A    between atoms: _518  and  _521
REMARK  228  A    between atoms: _521  and  _522
REMARK  229  A    between atoms: _522  and  _523
REMARK  230  A    between atoms: _523  and  _524
REMARK  231  A    between atoms: _533  and  _535
REMARK  232  A    between atoms: _535  and  _536
REMARK  233  A    between atoms: _535  and  _538
REMARK  234  A    between atoms: _538  and  _539
REMARK                            x       y       z     vdW  Elec       q    Type
REMARK                         _______ _______ _______ _____ _____    ______ ____
ROOT
ATOM      1  O   HOH     1       3.155  26.267  11.279  0.00  0.00    +0.000 OA
ENDROOT
TORSDOF 0
REMARK  Name = ../refined-set-2016/2fvd/2fvd_pocket.pdb
REMARK  234 active torsions:
REMARK  status: ('A' for Active; 'I' for Inactive)
REMARK    1  A    between atoms: _1  and  _3
REMARK    2  A    between atoms: _3  and  _4
REMARK    3  A    between atoms: _3  and  _6
REMARK    4  A    between atoms: _6  and  _7
REMARK    5  A    between atoms: _7  and  _8
REMARK    6  A    between atoms: _11  and  _13
REMARK    7  A    between atoms: _13  and  _14
REMARK    8  A    between atoms: _13  and  _16
REMARK    9  A    between atoms: _16  and  _17
REMARK   10  A    between atoms: _17  and  _18
REMARK   11  A    between atoms: _18  and  _19
REMARK   12  A    between atoms: _19  and  _20
REMARK   13  A    between atoms: _24  and  _26
REMARK   14  A    between atoms: _26  and  _27
REMARK   15  A    between atoms: _26  and  _29
REMARK   16  A    between atoms: _29  and  _30
REMARK   17  A    between atoms: _33  and  _35
REMARK   18  A    between atoms: _35  and  _36
REMARK   19  A    between atoms: _38  and  _40
REMARK   20  A    between atoms: _40  and  _41
REMARK   21  A    between atoms: _40  and  _43
REMARK   22  A    between atoms: _43  and  _44
REMARK   23  A    between atoms: _44  and  _45
REMARK   24  A    between atoms: _48  and  _50
REMARK   25  A    between atoms: _50  and  _51
REMARK   26  A    between atoms: _53  and  _55
REMARK   27  A    between atoms: _55  and  _56
REMARK   28  A    between atoms: _55  and  _58
REMARK   29  A    between atoms: _58  and  _59
REMARK   30  A    between atoms: _62  and  _64
REMARK   31  A    between atoms: _64  and  _65
REMARK   32  A    between atoms: _64  and  _67
REMARK   33  A    between atoms: _67  and  _68
REMARK   34  A    between atoms: _73  and  _74
REMARK   35  A    between atoms: _76  and  _78
REMARK   36  A    between atoms: _78  and  _79
REMARK   37  A    between atoms: _81  and  _83
REMARK   38  A    between atoms: _83  and  _84
REMARK   39  A    between atoms: _83  and  _86
REMARK   40  A    between atoms: _89  and  _91
REMARK   41  A    between atoms: _91  and  _92
REMARK   42  A    between atoms: _91  and  _94
REMARK   43  A    between atoms: _97  and  _99
REMARK   44  A    between atoms: _99  and  _100
REMARK   45  A    between atoms: _99  and  _102
REMARK   46  A    between atoms: _102  and  _103
REMARK   47  A    between atoms: _108  and  _109
REMARK   48  A    between atoms: _111  and  _113
REMARK   49  A    between atoms: _113  and  _114
REMARK   50  A    between atoms: _113  and  _116
REMARK   51  A    between atoms: _116  and  _117
REMARK   52  A    between atoms: _117  and  _118
REMARK   53  A    between atoms: _118  and  _119
REMARK   54  A    between atoms: _119  and  _120
REMARK   55  A    between atoms: _124  and  _126
REMARK   56  A    between atoms: _126  and  _127
REMARK   57  A    between atoms: _126  and  _129
REMARK   58  A    between atoms: _132  and  _134
REMARK   59  A    between atoms: _134  and  _135
REMARK   60  A    between atoms: _134  and  _137
REMARK   61  A    between atoms: _140  and  _142
REMARK   62  A    between atoms: _142  and  _143
REMARK   63  A    between atoms: _146  and  _148
REMARK   64  A    between atoms: _148  and  _149
REMARK   65  A    between atoms: _148  and  _151
REMARK   66  A    between atoms: _151  and  _152
REMARK   67  A    between atoms: _155  and  _157
REMARK   68  A    between atoms: _157  and  _158
REMARK   69  A    between atoms: _157  and  _160
REMARK   70  A    between atoms: _160  and  _161
REMARK   71  A    between atoms: _161  and  _162
REMARK   72  A    between atoms: _162  and  _163
REMARK   73  A    between atoms: _163  and  _164
REMARK   74  A    between atoms: _168  and  _170
REMARK   75  A    between atoms: _170  and  _171
REMARK   76  A    between atoms: _170  and  _173
REMARK   77  A    between atoms: _173  and  _174
REMARK   78  A    between atoms: _174  and  _175
REMARK   79  A    between atoms: _175  and  _176
REMARK   80  A    between atoms: _176  and  _177
REMARK   81  A    between atoms: _181  and  _183
REMARK   82  A    between atoms: _183  and  _184
REMARK   83  A    between atoms: _183  and  _186
REMARK   84  A    between atoms: _186  and  _187
REMARK   85  A    between atoms: _190  and  _192
REMARK   86  A    between atoms: _192  and  _193
REMARK   87  A    between atoms: _192  and  _195
REMARK   88  A    between atoms: _198  and  _200
REMARK   89  A    between atoms: _200  and  _201
REMARK   90  A    between atoms: _200  and  _203
REMARK   91  A    between atoms: _203  and  _204
REMARK   92  A    between atoms: _204  and  _205
REMARK   93  A    between atoms: _205  and  _206
REMARK   94  A    between atoms: _206  and  _207
REMARK   95  A    between atoms: _211  and  _213
REMARK   96  A    between atoms: _213  and  _214
REMARK   97  A    between atoms: _213  and  _216
REMARK   98  A    between atoms: _216  and  _217
REMARK   99  A    between atoms: _220  and  _222
REMARK  100  A    between atoms: _222  and  _223
REMARK  101  A    between atoms: _222  and  _225
REMARK  102  A    between atoms: _225  and  _226
REMARK  103  A    between atoms: _229  and  _231
REMARK  104  A    between atoms: _231  and  _232
REMARK  105  A    between atoms: _231  and  _234
REMARK  106  A    between atoms: _234  and  _235
REMARK  107  A    between atoms: _238  and  _240
REMARK  108  A    between atoms: _240  and  _241
REMARK  109  A    between atoms: _240  and  _243
REMARK  110  A    between atoms: _246  and  _248
REMARK  111  A    between atoms: _248  and  _249
REMARK  112  A    between atoms: _248  and  _251
REMARK  113  A    between atoms: _251  and  _252
REMARK  114  A    between atoms: _258  and  _260
REMARK  115  A    between atoms: _260  and  _261
REMARK  116  A    between atoms: _260  and  _263
REMARK  117  A    between atoms: _263  and  _264
REMARK  118  A    between atoms: _264  and  _265
REMARK  119  A    between atoms: _268  and  _270
REMARK  120  A    between atoms: _270  and  _271
REMARK  121  A    between atoms: _270  and  _273
REMARK  122  A    between atoms: _273  and  _274
REMARK  123  A    between atoms: _280  and  _282
REMARK  124  A    between atoms: _282  and  _283
REMARK  125  A    between atoms: _282  and  _285
REMARK  126  A    between atoms: _285  and  _286
REMARK  127  A    between atoms: _289  and  _291
REMARK  128  A    between atoms: _291  and  _292
REMARK  129  A    between atoms: _291  and  _294
REMARK  130  A    between atoms: _294  and  _295
REMARK  131  A    between atoms: _300  and  _302
REMARK  132  A    between atoms: _302  and  _303
REMARK  133  A    between atoms: _302  and  _305
REMARK  134  A    between atoms: _305  and  _306
REMARK  135  A    between atoms: _306  and  _307
REMARK  136  A    between atoms: _312  and  _314
REMARK  137  A    between atoms: _314  and  _315
REMARK  138  A    between atoms: _314  and  _317
REMARK  139  A    between atoms: _317  and  _318
REMARK  140  A    between atoms: _321  and  _323
REMARK  141  A    between atoms: _323  and  _324
REMARK  142  A    between atoms: _323  and  _326
REMARK  143  A    between atoms: _326  and  _327
REMARK  144  A    between atoms: _330  and  _332
REMARK  145  A    between atoms: _332  and  _333
REMARK  146  A    between atoms: _332  and  _335
REMARK  147  A    between atoms: _335  and  _336
REMARK  148  A    between atoms: _336  and  _337
REMARK  149  A    between atoms: _337  and  _338
REMARK  150  A    between atoms: _338  and  _339
REMARK  151  A    between atoms: _343  and  _345
REMARK  152  A    between atoms: _345  and  _346
REMARK  153  A    between atoms: _345  and  _348
REMARK  154  A    between atoms: _348  and  _349
REMARK  155  A    between atoms: _349  and  _350
REMARK  156  A    between atoms: _350  and  _351
REMARK  157  A    between atoms: _351  and  _352
REMARK  158  A    between atoms: _356  and  _358
REMARK  159  A    between atoms: _358  and  _359
REMARK  160  A    between atoms: _358  and  _361
REMARK  161  A    between atoms: _361  and  _362
REMARK  162  A    between atoms: _368  and  _370
REMARK  163  A    between atoms: _370  and  _371
REMARK  164  A    between atoms: _370  and  _373
REMARK  165  A    between atoms: _373  and  _374
REMARK  166  A    between atoms: _374  and  _375
REMARK  167  A    between atoms: _377  and  _379
REMARK  168  A    between atoms: _379  and  _380
REMARK  169  A    between atoms: _379  and  _382
REMARK  170  A    between atoms: _382  and  _383
REMARK  171  A    between atoms: _388  and  _390
REMARK  172  A    between atoms: _390  and  _391
REMARK  173  A    between atoms: _390  and  _393
REMARK  174  A    between atoms: _393  and  _394
REMARK  175  A    between atoms: _394  and  _395
REMARK  176  A    between atoms: _395  and  _396
REMARK  177  A    between atoms: _396  and  _397
REMARK  178  A    between atoms: _402  and  _403
REMARK  179  A    between atoms: _408  and  _410
REMARK  180  A    between atoms: _410  and  _411
REMARK  181  A    between atoms: _410  and  _413
REMARK  182  A    between atoms: _413  and  _414
REMARK  183  A    between atoms: _414  and  _415
REMARK  184  A    between atoms: _420  and  _422
REMARK  185  A    between atoms: _422  and  _423
REMARK  186  A    between atoms: _422  and  _425
REMARK  187  A    between atoms: _425  and  _426
REMARK  188  A    between atoms: _431  and  _433
REMARK  189  A    between atoms: _433  and  _434
REMARK  190  A    between atoms: _433  and  _436
REMARK  191  A    between atoms: _436  and  _437
REMARK  192  A    between atoms: _440  and  _442
REMARK  193  A    between atoms: _442  and  _443
REMARK  194  A    between atoms: _442  and  _445
REMARK  195  A    between atoms: _445  and  _446
REMARK  196  A    between atoms: _449  and  _451
REMARK  197  A    between atoms: _451  and  _452
REMARK  198  A    between atoms: _451  and  _454
REMARK  199  A    between atoms: _454  and  _455
REMARK  200  A    between atoms: _458  and  _460
REMARK  201  A    between atoms: _460  and  _461
REMARK  202  A    between atoms: _460  and  _463
REMARK  203  A    between atoms: _463  and  _464
REMARK  204  A    between atoms: _464  and  _465
REMARK  205  A    between atoms: _465  and  _466
REMARK  206  A    between atoms: _466  and  _467
REMARK  207  A    between atoms: _471  and  _473
REMARK  208  A    between atoms: _473  and  _474
REMARK  209  A    between atoms: _473  and  _476
REMARK  210  A    between atoms: _476  and  _477
REMARK  211  A    between atoms: _480  and  _482
REMARK  212  A    between atoms: _482  and  _483
REMARK  213  A    between atoms: _486  and  _488
REMARK  214  A    between atoms: _488  and  _489
REMARK  215  A    between atoms: _488  and  _491
REMARK  216  A    between atoms: _491  and  _492
REMARK  217  A    between atoms: _495  and  _497
REMARK  218  A    between atoms: _497  and  _498
REMARK  219  A    between atoms: _497  and  _500
REMARK  220  A    between atoms: _500  and  _501
REMARK  221  A    between atoms: _507  and  _509
REMARK  222  A    between atoms: _509  and  _510
REMARK  223  A    between atoms: _509  and  _512
REMARK  224  A    between atoms: _512  and  _513
REMARK  225  A    between atoms: _516  and  _518
REMARK  226  A    between atoms: _518  and  _519
REMARK  227  A    between atoms: _518  and  _521
REMARK  228  A    between atoms: _521  and  _522
REMARK  229  A    between atoms: _522  and  _523
REMARK  230  A    between atoms: _523  and  _524
REMARK  231  A    between atoms: _533  and  _535
REMARK  232  A    between atoms: _535  and  _536
REMARK  233  A    between atoms: _535  and  _538
REMARK  234  A    between atoms: _538  and  _539
REMARK                            x       y       z     vdW  Elec       q    Type
REMARK                         _______ _______ _______ _____ _____    ______ ____
ROOT
ATOM      1  O   HOH     1       1.563  26.050   9.001  0.00  0.00    +0.000 OA
ENDROOT
TORSDOF 0
REMARK  Name = ../refined-set-2016/2fvd/2fvd_pocket.pdb
REMARK  234 active torsions:
REMARK  status: ('A' for Active; 'I' for Inactive)
REMARK    1  A    between atoms: _1  and  _3
REMARK    2  A    between atoms: _3  and  _4
REMARK    3  A    between atoms: _3  and  _6
REMARK    4  A    between atoms: _6  and  _7
REMARK    5  A    between atoms: _7  and  _8
REMARK    6  A    between atoms: _11  and  _13
REMARK    7  A    between atoms: _13  and  _14
REMARK    8  A    between atoms: _13  and  _16
REMARK    9  A    between atoms: _16  and  _17
REMARK   10  A    between atoms: _17  and  _18
REMARK   11  A    between atoms: _18  and  _19
REMARK   12  A    between atoms: _19  and  _20
REMARK   13  A    between atoms: _24  and  _26
REMARK   14  A    between atoms: _26  and  _27
REMARK   15  A    between atoms: _26  and  _29
REMARK   16  A    between atoms: _29  and  _30
REMARK   17  A    between atoms: _33  and  _35
REMARK   18  A    between atoms: _35  and  _36
REMARK   19  A    between atoms: _38  and  _40
REMARK   20  A    between atoms: _40  and  _41
REMARK   21  A    between atoms: _40  and  _43
REMARK   22  A    between atoms: _43  and  _44
REMARK   23  A    between atoms: _44  and  _45
REMARK   24  A    between atoms: _48  and  _50
REMARK   25  A    between atoms: _50  and  _51
REMARK   26  A    between atoms: _53  and  _55
REMARK   27  A    between atoms: _55  and  _56
REMARK   28  A    between atoms: _55  and  _58
REMARK   29  A    between atoms: _58  and  _59
REMARK   30  A    between atoms: _62  and  _64
REMARK   31  A    between atoms: _64  and  _65
REMARK   32  A    between atoms: _64  and  _67
REMARK   33  A    between atoms: _67  and  _68
REMARK   34  A    between atoms: _73  and  _74
REMARK   35  A    between atoms: _76  and  _78
REMARK   36  A    between atoms: _78  and  _79
REMARK   37  A    between atoms: _81  and  _83
REMARK   38  A    between atoms: _83  and  _84
REMARK   39  A    between atoms: _83  and  _86
REMARK   40  A    between atoms: _89  and  _91
REMARK   41  A    between atoms: _91  and  _92
REMARK   42  A    between atoms: _91  and  _94
REMARK   43  A    between atoms: _97  and  _99
REMARK   44  A    between atoms: _99  and  _100
REMARK   45  A    between atoms: _99  and  _102
REMARK   46  A    between atoms: _102  and  _103
REMARK   47  A    between atoms: _108  and  _109
REMARK   48  A    between atoms: _111  and  _113
REMARK   49  A    between atoms: _113  and  _114
REMARK   50  A    between atoms: _113  and  _116
REMARK   51  A    between atoms: _116  and  _117
REMARK   52  A    between atoms: _117  and  _118
REMARK   53  A    between atoms: _118  and  _119
REMARK   54  A    between atoms: _119  and  _120
REMARK   55  A    between atoms: _124  and  _126
REMARK   56  A    between atoms: _126  and  _127
REMARK   57  A    between atoms: _126  and  _129
REMARK   58  A    between atoms: _132  and  _134
REMARK   59  A    between atoms: _134  and  _135
REMARK   60  A    between atoms: _134  and  _137
REMARK   61  A    between atoms: _140  and  _142
REMARK   62  A    between atoms: _142  and  _143
REMARK   63  A    between atoms: _146  and  _148
REMARK   64  A    between atoms: _148  and  _149
REMARK   65  A    between atoms: _148  and  _151
REMARK   66  A    between atoms: _151  and  _152
REMARK   67  A    between atoms: _155  and  _157
REMARK   68  A    between atoms: _157  and  _158
REMARK   69  A    between atoms: _157  and  _160
REMARK   70  A    between atoms: _160  and  _161
REMARK   71  A    between atoms: _161  and  _162
REMARK   72  A    between atoms: _162  and  _163
REMARK   73  A    between atoms: _163  and  _164
REMARK   74  A    between atoms: _168  and  _170
REMARK   75  A    between atoms: _170  and  _171
REMARK   76  A    between atoms: _170  and  _173
REMARK   77  A    between atoms: _173  and  _174
REMARK   78  A    between atoms: _174  and  _175
REMARK   79  A    between atoms: _175  and  _176
REMARK   80  A    between atoms: _176  and  _177
REMARK   81  A    between atoms: _181  and  _183
REMARK   82  A    between atoms: _183  and  _184
REMARK   83  A    between atoms: _183  and  _186
REMARK   84  A    between atoms: _186  and  _187
REMARK   85  A    between atoms: _190  and  _192
REMARK   86  A    between atoms: _192  and  _193
REMARK   87  A    between atoms: _192  and  _195
REMARK   88  A    between atoms: _198  and  _200
REMARK   89  A    between atoms: _200  and  _201
REMARK   90  A    between atoms: _200  and  _203
REMARK   91  A    between atoms: _203  and  _204
REMARK   92  A    between atoms: _204  and  _205
REMARK   93  A    between atoms: _205  and  _206
REMARK   94  A    between atoms: _206  and  _207
REMARK   95  A    between atoms: _211  and  _213
REMARK   96  A    between atoms: _213  and  _214
REMARK   97  A    between atoms: _213  and  _216
REMARK   98  A    between atoms: _216  and  _217
REMARK   99  A    between atoms: _220  and  _222
REMARK  100  A    between atoms: _222  and  _223
REMARK  101  A    between atoms: _222  and  _225
REMARK  102  A    between atoms: _225  and  _226
REMARK  103  A    between atoms: _229  and  _231
REMARK  104  A    between atoms: _231  and  _232
REMARK  105  A    between atoms: _231  and  _234
REMARK  106  A    between atoms: _234  and  _235
REMARK  107  A    between atoms: _238  and  _240
REMARK  108  A    between atoms: _240  and  _241
REMARK  109  A    between atoms: _240  and  _243
REMARK  110  A    between atoms: _246  and  _248
REMARK  111  A    between atoms: _248  and  _249
REMARK  112  A    between atoms: _248  and  _251
REMARK  113  A    between atoms: _251  and  _252
REMARK  114  A    between atoms: _258  and  _260
REMARK  115  A    between atoms: _260  and  _261
REMARK  116  A    between atoms: _260  and  _263
REMARK  117  A    between atoms: _263  and  _264
REMARK  118  A    between atoms: _264  and  _265
REMARK  119  A    between atoms: _268  and  _270
REMARK  120  A    between atoms: _270  and  _271
REMARK  121  A    between atoms: _270  and  _273
REMARK  122  A    between atoms: _273  and  _274
REMARK  123  A    between atoms: _280  and  _282
REMARK  124  A    between atoms: _282  and  _283
REMARK  125  A    between atoms: _282  and  _285
REMARK  126  A    between atoms: _285  and  _286
REMARK  127  A    between atoms: _289  and  _291
REMARK  128  A    between atoms: _291  and  _292
REMARK  129  A    between atoms: _291  and  _294
REMARK  130  A    between atoms: _294  and  _295
REMARK  131  A    between atoms: _300  and  _302
REMARK  132  A    between atoms: _302  and  _303
REMARK  133  A    between atoms: _302  and  _305
REMARK  134  A    between atoms: _305  and  _306
REMARK  135  A    between atoms: _306  and  _307
REMARK  136  A    between atoms: _312  and  _314
REMARK  137  A    between atoms: _314  and  _315
REMARK  138  A    between atoms: _314  and  _317
REMARK  139  A    between atoms: _317  and  _318
REMARK  140  A    between atoms: _321  and  _323
REMARK  141  A    between atoms: _323  and  _324
REMARK  142  A    between atoms: _323  and  _326
REMARK  143  A    between atoms: _326  and  _327
REMARK  144  A    between atoms: _330  and  _332
REMARK  145  A    between atoms: _332  and  _333
REMARK  146  A    between atoms: _332  and  _335
REMARK  147  A    between atoms: _335  and  _336
REMARK  148  A    between atoms: _336  and  _337
REMARK  149  A    between atoms: _337  and  _338
REMARK  150  A    between atoms: _338  and  _339
REMARK  151  A    between atoms: _343  and  _345
REMARK  152  A    between atoms: _345  and  _346
REMARK  153  A    between atoms: _345  and  _348
REMARK  154  A    between atoms: _348  and  _349
REMARK  155  A    between atoms: _349  and  _350
REMARK  156  A    between atoms: _350  and  _351
REMARK  157  A    between atoms: _351  and  _352
REMARK  158  A    between atoms: _356  and  _358
REMARK  159  A    between atoms: _358  and  _359
REMARK  160  A    between atoms: _358  and  _361
REMARK  161  A    between atoms: _361  and  _362
REMARK  162  A    between atoms: _368  and  _370
REMARK  163  A    between atoms: _370  and  _371
REMARK  164  A    between atoms: _370  and  _373
REMARK  165  A    between atoms: _373  and  _374
REMARK  166  A    between atoms: _374  and  _375
REMARK  167  A    between atoms: _377  and  _379
REMARK  168  A    between atoms: _379  and  _380
REMARK  169  A    between atoms: _379  and  _382
REMARK  170  A    between atoms: _382  and  _383
REMARK  171  A    between atoms: _388  and  _390
REMARK  172  A    between atoms: _390  and  _391
REMARK  173  A    between atoms: _390  and  _393
REMARK  174  A    between atoms: _393  and  _394
REMARK  175  A    between atoms: _394  and  _395
REMARK  176  A    between atoms: _395  and  _396
REMARK  177  A    between atoms: _396  and  _397
REMARK  178  A    between atoms: _402  and  _403
REMARK  179  A    between atoms: _408  and  _410
REMARK  180  A    between atoms: _410  and  _411
REMARK  181  A    between atoms: _410  and  _413
REMARK  182  A    between atoms: _413  and  _414
REMARK  183  A    between atoms: _414  and  _415
REMARK  184  A    between atoms: _420  and  _422
REMARK  185  A    between atoms: _422  and  _423
REMARK  186  A    between atoms: _422  and  _425
REMARK  187  A    between atoms: _425  and  _426
REMARK  188  A    between atoms: _431  and  _433
REMARK  189  A    between atoms: _433  and  _434
REMARK  190  A    between atoms: _433  and  _436
REMARK  191  A    between atoms: _436  and  _437
REMARK  192  A    between atoms: _440  and  _442
REMARK  193  A    between atoms: _442  and  _443
REMARK  194  A    between atoms: _442  and  _445
REMARK  195  A    between atoms: _445  and  _446
REMARK  196  A    between atoms: _449  and  _451
REMARK  197  A    between atoms: _451  and  _452
REMARK  198  A    between atoms: _451  and  _454
REMARK  199  A    between atoms: _454  and  _455
REMARK  200  A    between atoms: _458  and  _460
REMARK  201  A    between atoms: _460  and  _461
REMARK  202  A    between atoms: _460  and  _463
REMARK  203  A    between atoms: _463  and  _464
REMARK  204  A    between atoms: _464  and  _465
REMARK  205  A    between atoms: _465  and  _466
REMARK  206  A    between atoms: _466  and  _467
REMARK  207  A    between atoms: _471  and  _473
REMARK  208  A    between atoms: _473  and  _474
REMARK  209  A    between atoms: _473  and  _476
REMARK  210  A    between atoms: _476  and  _477
REMARK  211  A    between atoms: _480  and  _482
REMARK  212  A    between atoms: _482  and  _483
REMARK  213  A    between atoms: _486  and  _488
REMARK  214  A    between atoms: _488  and  _489
REMARK  215  A    between atoms: _488  and  _491
REMARK  216  A    between atoms: _491  and  _492
REMARK  217  A    between atoms: _495  and  _497
REMARK  218  A    between atoms: _497  and  _498
REMARK  219  A    between atoms: _497  and  _500
REMARK  220  A    between atoms: _500  and  _501
REMARK  221  A    between atoms: _507  and  _509
REMARK  222  A    between atoms: _509  and  _510
REMARK  223  A    between atoms: _509  and  _512
REMARK  224  A    between atoms: _512  and  _513
REMARK  225  A    between atoms: _516  and  _518
REMARK  226  A    between atoms: _518  and  _519
REMARK  227  A    between atoms: _518  and  _521
REMARK  228  A    between atoms: _521  and  _522
REMARK  229  A    between atoms: _522  and  _523
REMARK  230  A    between atoms: _523  and  _524
REMARK  231  A    between atoms: _533  and  _535
REMARK  232  A    between atoms: _535  and  _536
REMARK  233  A    between atoms: _535  and  _538
REMARK  234  A    between atoms: _538  and  _539
REMARK                            x       y       z     vdW  Elec       q    Type
REMARK                         _______ _______ _______ _____ _____    ______ ____
ROOT
ATOM      1  O   HOH     1      -3.415  32.508  11.789  0.00  0.00    +0.000 OA
ENDROOT
TORSDOF 0
REMARK  Name = ../refined-set-2016/2fvd/2fvd_pocket.pdb
REMARK  234 active torsions:
REMARK  status: ('A' for Active; 'I' for Inactive)
REMARK    1  A    between atoms: _1  and  _3
REMARK    2  A    between atoms: _3  and  _4
REMARK    3  A    between atoms: _3  and  _6
REMARK    4  A    between atoms: _6  and  _7
REMARK    5  A    between atoms: _7  and  _8
REMARK    6  A    between atoms: _11  and  _13
REMARK    7  A    between atoms: _13  and  _14
REMARK    8  A    between atoms: _13  and  _16
REMARK    9  A    between atoms: _16  and  _17
REMARK   10  A    between atoms: _17  and  _18
REMARK   11  A    between atoms: _18  and  _19
REMARK   12  A    between atoms: _19  and  _20
REMARK   13  A    between atoms: _24  and  _26
REMARK   14  A    between atoms: _26  and  _27
REMARK   15  A    between atoms: _26  and  _29
REMARK   16  A    between atoms: _29  and  _30
REMARK   17  A    between atoms: _33  and  _35
REMARK   18  A    between atoms: _35  and  _36
REMARK   19  A    between atoms: _38  and  _40
REMARK   20  A    between atoms: _40  and  _41
REMARK   21  A    between atoms: _40  and  _43
REMARK   22  A    between atoms: _43  and  _44
REMARK   23  A    between atoms: _44  and  _45
REMARK   24  A    between atoms: _48  and  _50
REMARK   25  A    between atoms: _50  and  _51
REMARK   26  A    between atoms: _53  and  _55
REMARK   27  A    between atoms: _55  and  _56
REMARK   28  A    between atoms: _55  and  _58
REMARK   29  A    between atoms: _58  and  _59
REMARK   30  A    between atoms: _62  and  _64
REMARK   31  A    between atoms: _64  and  _65
REMARK   32  A    between atoms: _64  and  _67
REMARK   33  A    between atoms: _67  and  _68
REMARK   34  A    between atoms: _73  and  _74
REMARK   35  A    between atoms: _76  and  _78
REMARK   36  A    between atoms: _78  and  _79
REMARK   37  A    between atoms: _81  and  _83
REMARK   38  A    between atoms: _83  and  _84
REMARK   39  A    between atoms: _83  and  _86
REMARK   40  A    between atoms: _89  and  _91
REMARK   41  A    between atoms: _91  and  _92
REMARK   42  A    between atoms: _91  and  _94
REMARK   43  A    between atoms: _97  and  _99
REMARK   44  A    between atoms: _99  and  _100
REMARK   45  A    between atoms: _99  and  _102
REMARK   46  A    between atoms: _102  and  _103
REMARK   47  A    between atoms: _108  and  _109
REMARK   48  A    between atoms: _111  and  _113
REMARK   49  A    between atoms: _113  and  _114
REMARK   50  A    between atoms: _113  and  _116
REMARK   51  A    between atoms: _116  and  _117
REMARK   52  A    between atoms: _117  and  _118
REMARK   53  A    between atoms: _118  and  _119
REMARK   54  A    between atoms: _119  and  _120
REMARK   55  A    between atoms: _124  and  _126
REMARK   56  A    between atoms: _126  and  _127
REMARK   57  A    between atoms: _126  and  _129
REMARK   58  A    between atoms: _132  and  _134
REMARK   59  A    between atoms: _134  and  _135
REMARK   60  A    between atoms: _134  and  _137
REMARK   61  A    between atoms: _140  and  _142
REMARK   62  A    between atoms: _142  and  _143
REMARK   63  A    between atoms: _146  and  _148
REMARK   64  A    between atoms: _148  and  _149
REMARK   65  A    between atoms: _148  and  _151
REMARK   66  A    between atoms: _151  and  _152
REMARK   67  A    between atoms: _155  and  _157
REMARK   68  A    between atoms: _157  and  _158
REMARK   69  A    between atoms: _157  and  _160
REMARK   70  A    between atoms: _160  and  _161
REMARK   71  A    between atoms: _161  and  _162
REMARK   72  A    between atoms: _162  and  _163
REMARK   73  A    between atoms: _163  and  _164
REMARK   74  A    between atoms: _168  and  _170
REMARK   75  A    between atoms: _170  and  _171
REMARK   76  A    between atoms: _170  and  _173
REMARK   77  A    between atoms: _173  and  _174
REMARK   78  A    between atoms: _174  and  _175
REMARK   79  A    between atoms: _175  and  _176
REMARK   80  A    between atoms: _176  and  _177
REMARK   81  A    between atoms: _181  and  _183
REMARK   82  A    between atoms: _183  and  _184
REMARK   83  A    between atoms: _183  and  _186
REMARK   84  A    between atoms: _186  and  _187
REMARK   85  A    between atoms: _190  and  _192
REMARK   86  A    between atoms: _192  and  _193
REMARK   87  A    between atoms: _192  and  _195
REMARK   88  A    between atoms: _198  and  _200
REMARK   89  A    between atoms: _200  and  _201
REMARK   90  A    between atoms: _200  and  _203
REMARK   91  A    between atoms: _203  and  _204
REMARK   92  A    between atoms: _204  and  _205
REMARK   93  A    between atoms: _205  and  _206
REMARK   94  A    between atoms: _206  and  _207
REMARK   95  A    between atoms: _211  and  _213
REMARK   96  A    between atoms: _213  and  _214
REMARK   97  A    between atoms: _213  and  _216
REMARK   98  A    between atoms: _216  and  _217
REMARK   99  A    between atoms: _220  and  _222
REMARK  100  A    between atoms: _222  and  _223
REMARK  101  A    between atoms: _222  and  _225
REMARK  102  A    between atoms: _225  and  _226
REMARK  103  A    between atoms: _229  and  _231
REMARK  104  A    between atoms: _231  and  _232
REMARK  105  A    between atoms: _231  and  _234
REMARK  106  A    between atoms: _234  and  _235
REMARK  107  A    between atoms: _238  and  _240
REMARK  108  A    between atoms: _240  and  _241
REMARK  109  A    between atoms: _240  and  _243
REMARK  110  A    between atoms: _246  and  _248
REMARK  111  A    between atoms: _248  and  _249
REMARK  112  A    between atoms: _248  and  _251
REMARK  113  A    between atoms: _251  and  _252
REMARK  114  A    between atoms: _258  and  _260
REMARK  115  A    between atoms: _260  and  _261
REMARK  116  A    between atoms: _260  and  _263
REMARK  117  A    between atoms: _263  and  _264
REMARK  118  A    between atoms: _264  and  _265
REMARK  119  A    between atoms: _268  and  _270
REMARK  120  A    between atoms: _270  and  _271
REMARK  121  A    between atoms: _270  and  _273
REMARK  122  A    between atoms: _273  and  _274
REMARK  123  A    between atoms: _280  and  _282
REMARK  124  A    between atoms: _282  and  _283
REMARK  125  A    between atoms: _282  and  _285
REMARK  126  A    between atoms: _285  and  _286
REMARK  127  A    between atoms: _289  and  _291
REMARK  128  A    between atoms: _291  and  _292
REMARK  129  A    between atoms: _291  and  _294
REMARK  130  A    between atoms: _294  and  _295
REMARK  131  A    between atoms: _300  and  _302
REMARK  132  A    between atoms: _302  and  _303
REMARK  133  A    between atoms: _302  and  _305
REMARK  134  A    between atoms: _305  and  _306
REMARK  135  A    between atoms: _306  and  _307
REMARK  136  A    between atoms: _312  and  _314
REMARK  137  A    between atoms: _314  and  _315
REMARK  138  A    between atoms: _314  and  _317
REMARK  139  A    between atoms: _317  and  _318
REMARK  140  A    between atoms: _321  and  _323
REMARK  141  A    between atoms: _323  and  _324
REMARK  142  A    between atoms: _323  and  _326
REMARK  143  A    between atoms: _326  and  _327
REMARK  144  A    between atoms: _330  and  _332
REMARK  145  A    between atoms: _332  and  _333
REMARK  146  A    between atoms: _332  and  _335
REMARK  147  A    between atoms: _335  and  _336
REMARK  148  A    between atoms: _336  and  _337
REMARK  149  A    between atoms: _337  and  _338
REMARK  150  A    between atoms: _338  and  _339
REMARK  151  A    between atoms: _343  and  _345
REMARK  152  A    between atoms: _345  and  _346
REMARK  153  A    between atoms: _345  and  _348
REMARK  154  A    between atoms: _348  and  _349
REMARK  155  A    between atoms: _349  and  _350
REMARK  156  A    between atoms: _350  and  _351
REMARK  157  A    between atoms: _351  and  _352
REMARK  158  A    between atoms: _356  and  _358
REMARK  159  A    between atoms: _358  and  _359
REMARK  160  A    between atoms: _358  and  _361
REMARK  161  A    between atoms: _361  and  _362
REMARK  162  A    between atoms: _368  and  _370
REMARK  163  A    between atoms: _370  and  _371
REMARK  164  A    between atoms: _370  and  _373
REMARK  165  A    between atoms: _373  and  _374
REMARK  166  A    between atoms: _374  and  _375
REMARK  167  A    between atoms: _377  and  _379
REMARK  168  A    between atoms: _379  and  _380
REMARK  169  A    between atoms: _379  and  _382
REMARK  170  A    between atoms: _382  and  _383
REMARK  171  A    between atoms: _388  and  _390
REMARK  172  A    between atoms: _390  and  _391
REMARK  173  A    between atoms: _390  and  _393
REMARK  174  A    between atoms: _393  and  _394
REMARK  175  A    between atoms: _394  and  _395
REMARK  176  A    between atoms: _395  and  _396
REMARK  177  A    between atoms: _396  and  _397
REMARK  178  A    between atoms: _402  and  _403
REMARK  179  A    between atoms: _408  and  _410
REMARK  180  A    between atoms: _410  and  _411
REMARK  181  A    between atoms: _410  and  _413
REMARK  182  A    between atoms: _413  and  _414
REMARK  183  A    between atoms: _414  and  _415
REMARK  184  A    between atoms: _420  and  _422
REMARK  185  A    between atoms: _422  and  _423
REMARK  186  A    between atoms: _422  and  _425
REMARK  187  A    between atoms: _425  and  _426
REMARK  188  A    between atoms: _431  and  _433
REMARK  189  A    between atoms: _433  and  _434
REMARK  190  A    between atoms: _433  and  _436
REMARK  191  A    between atoms: _436  and  _437
REMARK  192  A    between atoms: _440  and  _442
REMARK  193  A    between atoms: _442  and  _443
REMARK  194  A    between atoms: _442  and  _445
REMARK  195  A    between atoms: _445  and  _446
REMARK  196  A    between atoms: _449  and  _451
REMARK  197  A    between atoms: _451  and  _452
REMARK  198  A    between atoms: _451  and  _454
REMARK  199  A    between atoms: _454  and  _455
REMARK  200  A    between atoms: _458  and  _460
REMARK  201  A    between atoms: _460  and  _461
REMARK  202  A    between atoms: _460  and  _463
REMARK  203  A    between atoms: _463  and  _464
REMARK  204  A    between atoms: _464  and  _465
REMARK  205  A    between atoms: _465  and  _466
REMARK  206  A    between atoms: _466  and  _467
REMARK  207  A    between atoms: _471  and  _473
REMARK  208  A    between atoms: _473  and  _474
REMARK  209  A    between atoms: _473  and  _476
REMARK  210  A    between atoms: _476  and  _477
REMARK  211  A    between atoms: _480  and  _482
REMARK  212  A    between atoms: _482  and  _483
REMARK  213  A    between atoms: _486  and  _488
REMARK  214  A    between atoms: _488  and  _489
REMARK  215  A    between atoms: _488  and  _491
REMARK  216  A    between atoms: _491  and  _492
REMARK  217  A    between atoms: _495  and  _497
REMARK  218  A    between atoms: _497  and  _498
REMARK  219  A    between atoms: _497  and  _500
REMARK  220  A    between atoms: _500  and  _501
REMARK  221  A    between atoms: _507  and  _509
REMARK  222  A    between atoms: _509  and  _510
REMARK  223  A    between atoms: _509  and  _512
REMARK  224  A    between atoms: _512  and  _513
REMARK  225  A    between atoms: _516  and  _518
REMARK  226  A    between atoms: _518  and  _519
REMARK  227  A    between atoms: _518  and  _521
REMARK  228  A    between atoms: _521  and  _522
REMARK  229  A    between atoms: _522  and  _523
REMARK  230  A    between atoms: _523  and  _524
REMARK  231  A    between atoms: _533  and  _535
REMARK  232  A    between atoms: _535  and  _536
REMARK  233  A    between atoms: _535  and  _538
REMARK  234  A    between atoms: _538  and  _539
REMARK                            x       y       z     vdW  Elec       q    Type
REMARK                         _______ _______ _______ _____ _____    ______ ____
ROOT
ATOM      1  O   HOH     1      -5.856  30.953  12.181  0.00  0.00    +0.000 OA
ENDROOT
TORSDOF 0
REMARK  Name = ../refined-set-2016/2fvd/2fvd_pocket.pdb
REMARK  234 active torsions:
REMARK  status: ('A' for Active; 'I' for Inactive)
REMARK    1  A    between atoms: _1  and  _3
REMARK    2  A    between atoms: _3  and  _4
REMARK    3  A    between atoms: _3  and  _6
REMARK    4  A    between atoms: _6  and  _7
REMARK    5  A    between atoms: _7  and  _8
REMARK    6  A    between atoms: _11  and  _13
REMARK    7  A    between atoms: _13  and  _14
REMARK    8  A    between atoms: _13  and  _16
REMARK    9  A    between atoms: _16  and  _17
REMARK   10  A    between atoms: _17  and  _18
REMARK   11  A    between atoms: _18  and  _19
REMARK   12  A    between atoms: _19  and  _20
REMARK   13  A    between atoms: _24  and  _26
REMARK   14  A    between atoms: _26  and  _27
REMARK   15  A    between atoms: _26  and  _29
REMARK   16  A    between atoms: _29  and  _30
REMARK   17  A    between atoms: _33  and  _35
REMARK   18  A    between atoms: _35  and  _36
REMARK   19  A    between atoms: _38  and  _40
REMARK   20  A    between atoms: _40  and  _41
REMARK   21  A    between atoms: _40  and  _43
REMARK   22  A    between atoms: _43  and  _44
REMARK   23  A    between atoms: _44  and  _45
REMARK   24  A    between atoms: _48  and  _50
REMARK   25  A    between atoms: _50  and  _51
REMARK   26  A    between atoms: _53  and  _55
REMARK   27  A    between atoms: _55  and  _56
REMARK   28  A    between atoms: _55  and  _58
REMARK   29  A    between atoms: _58  and  _59
REMARK   30  A    between atoms: _62  and  _64
REMARK   31  A    between atoms: _64  and  _65
REMARK   32  A    between atoms: _64  and  _67
REMARK   33  A    between atoms: _67  and  _68
REMARK   34  A    between atoms: _73  and  _74
REMARK   35  A    between atoms: _76  and  _78
REMARK   36  A    between atoms: _78  and  _79
REMARK   37  A    between atoms: _81  and  _83
REMARK   38  A    between atoms: _83  and  _84
REMARK   39  A    between atoms: _83  and  _86
REMARK   40  A    between atoms: _89  and  _91
REMARK   41  A    between atoms: _91  and  _92
REMARK   42  A    between atoms: _91  and  _94
REMARK   43  A    between atoms: _97  and  _99
REMARK   44  A    between atoms: _99  and  _100
REMARK   45  A    between atoms: _99  and  _102
REMARK   46  A    between atoms: _102  and  _103
REMARK   47  A    between atoms: _108  and  _109
REMARK   48  A    between atoms: _111  and  _113
REMARK   49  A    between atoms: _113  and  _114
REMARK   50  A    between atoms: _113  and  _116
REMARK   51  A    between atoms: _116  and  _117
REMARK   52  A    between atoms: _117  and  _118
REMARK   53  A    between atoms: _118  and  _119
REMARK   54  A    between atoms: _119  and  _120
REMARK   55  A    between atoms: _124  and  _126
REMARK   56  A    between atoms: _126  and  _127
REMARK   57  A    between atoms: _126  and  _129
REMARK   58  A    between atoms: _132  and  _134
REMARK   59  A    between atoms: _134  and  _135
REMARK   60  A    between atoms: _134  and  _137
REMARK   61  A    between atoms: _140  and  _142
REMARK   62  A    between atoms: _142  and  _143
REMARK   63  A    between atoms: _146  and  _148
REMARK   64  A    between atoms: _148  and  _149
REMARK   65  A    between atoms: _148  and  _151
REMARK   66  A    between atoms: _151  and  _152
REMARK   67  A    between atoms: _155  and  _157
REMARK   68  A    between atoms: _157  and  _158
REMARK   69  A    between atoms: _157  and  _160
REMARK   70  A    between atoms: _160  and  _161
REMARK   71  A    between atoms: _161  and  _162
REMARK   72  A    between atoms: _162  and  _163
REMARK   73  A    between atoms: _163  and  _164
REMARK   74  A    between atoms: _168  and  _170
REMARK   75  A    between atoms: _170  and  _171
REMARK   76  A    between atoms: _170  and  _173
REMARK   77  A    between atoms: _173  and  _174
REMARK   78  A    between atoms: _174  and  _175
REMARK   79  A    between atoms: _175  and  _176
REMARK   80  A    between atoms: _176  and  _177
REMARK   81  A    between atoms: _181  and  _183
REMARK   82  A    between atoms: _183  and  _184
REMARK   83  A    between atoms: _183  and  _186
REMARK   84  A    between atoms: _186  and  _187
REMARK   85  A    between atoms: _190  and  _192
REMARK   86  A    between atoms: _192  and  _193
REMARK   87  A    between atoms: _192  and  _195
REMARK   88  A    between atoms: _198  and  _200
REMARK   89  A    between atoms: _200  and  _201
REMARK   90  A    between atoms: _200  and  _203
REMARK   91  A    between atoms: _203  and  _204
REMARK   92  A    between atoms: _204  and  _205
REMARK   93  A    between atoms: _205  and  _206
REMARK   94  A    between atoms: _206  and  _207
REMARK   95  A    between atoms: _211  and  _213
REMARK   96  A    between atoms: _213  and  _214
REMARK   97  A    between atoms: _213  and  _216
REMARK   98  A    between atoms: _216  and  _217
REMARK   99  A    between atoms: _220  and  _222
REMARK  100  A    between atoms: _222  and  _223
REMARK  101  A    between atoms: _222  and  _225
REMARK  102  A    between atoms: _225  and  _226
REMARK  103  A    between atoms: _229  and  _231
REMARK  104  A    between atoms: _231  and  _232
REMARK  105  A    between atoms: _231  and  _234
REMARK  106  A    between atoms: _234  and  _235
REMARK  107  A    between atoms: _238  and  _240
REMARK  108  A    between atoms: _240  and  _241
REMARK  109  A    between atoms: _240  and  _243
REMARK  110  A    between atoms: _246  and  _248
REMARK  111  A    between atoms: _248  and  _249
REMARK  112  A    between atoms: _248  and  _251
REMARK  113  A    between atoms: _251  and  _252
REMARK  114  A    between atoms: _258  and  _260
REMARK  115  A    between atoms: _260  and  _261
REMARK  116  A    between atoms: _260  and  _263
REMARK  117  A    between atoms: _263  and  _264
REMARK  118  A    between atoms: _264  and  _265
REMARK  119  A    between atoms: _268  and  _270
REMARK  120  A    between atoms: _270  and  _271
REMARK  121  A    between atoms: _270  and  _273
REMARK  122  A    between atoms: _273  and  _274
REMARK  123  A    between atoms: _280  and  _282
REMARK  124  A    between atoms: _282  and  _283
REMARK  125  A    between atoms: _282  and  _285
REMARK  126  A    between atoms: _285  and  _286
REMARK  127  A    between atoms: _289  and  _291
REMARK  128  A    between atoms: _291  and  _292
REMARK  129  A    between atoms: _291  and  _294
REMARK  130  A    between atoms: _294  and  _295
REMARK  131  A    between atoms: _300  and  _302
REMARK  132  A    between atoms: _302  and  _303
REMARK  133  A    between atoms: _302  and  _305
REMARK  134  A    between atoms: _305  and  _306
REMARK  135  A    between atoms: _306  and  _307
REMARK  136  A    between atoms: _312  and  _314
REMARK  137  A    between atoms: _314  and  _315
REMARK  138  A    between atoms: _314  and  _317
REMARK  139  A    between atoms: _317  and  _318
REMARK  140  A    between atoms: _321  and  _323
REMARK  141  A    between atoms: _323  and  _324
REMARK  142  A    between atoms: _323  and  _326
REMARK  143  A    between atoms: _326  and  _327
REMARK  144  A    between atoms: _330  and  _332
REMARK  145  A    between atoms: _332  and  _333
REMARK  146  A    between atoms: _332  and  _335
REMARK  147  A    between atoms: _335  and  _336
REMARK  148  A    between atoms: _336  and  _337
REMARK  149  A    between atoms: _337  and  _338
REMARK  150  A    between atoms: _338  and  _339
REMARK  151  A    between atoms: _343  and  _345
REMARK  152  A    between atoms: _345  and  _346
REMARK  153  A    between atoms: _345  and  _348
REMARK  154  A    between atoms: _348  and  _349
REMARK  155  A    between atoms: _349  and  _350
REMARK  156  A    between atoms: _350  and  _351
REMARK  157  A    between atoms: _351  and  _352
REMARK  158  A    between atoms: _356  and  _358
REMARK  159  A    between atoms: _358  and  _359
REMARK  160  A    between atoms: _358  and  _361
REMARK  161  A    between atoms: _361  and  _362
REMARK  162  A    between atoms: _368  and  _370
REMARK  163  A    between atoms: _370  and  _371
REMARK  164  A    between atoms: _370  and  _373
REMARK  165  A    between atoms: _373  and  _374
REMARK  166  A    between atoms: _374  and  _375
REMARK  167  A    between atoms: _377  and  _379
REMARK  168  A    between atoms: _379  and  _380
REMARK  169  A    between atoms: _379  and  _382
REMARK  170  A    between atoms: _382  and  _383
REMARK  171  A    between atoms: _388  and  _390
REMARK  172  A    between atoms: _390  and  _391
REMARK  173  A    between atoms: _390  and  _393
REMARK  174  A    between atoms: _393  and  _394
REMARK  175  A    between atoms: _394  and  _395
REMARK  176  A    between atoms: _395  and  _396
REMARK  177  A    between atoms: _396  and  _397
REMARK  178  A    between atoms: _402  and  _403
REMARK  179  A    between atoms: _408  and  _410
REMARK  180  A    between atoms: _410  and  _411
REMARK  181  A    between atoms: _410  and  _413
REMARK  182  A    between atoms: _413  and  _414
REMARK  183  A    between atoms: _414  and  _415
REMARK  184  A    between atoms: _420  and  _422
REMARK  185  A    between atoms: _422  and  _423
REMARK  186  A    between atoms: _422  and  _425
REMARK  187  A    between atoms: _425  and  _426
REMARK  188  A    between atoms: _431  and  _433
REMARK  189  A    between atoms: _433  and  _434
REMARK  190  A    between atoms: _433  and  _436
REMARK  191  A    between atoms: _436  and  _437
REMARK  192  A    between atoms: _440  and  _442
REMARK  193  A    between atoms: _442  and  _443
REMARK  194  A    between atoms: _442  and  _445
REMARK  195  A    between atoms: _445  and  _446
REMARK  196  A    between atoms: _449  and  _451
REMARK  197  A    between atoms: _451  and  _452
REMARK  198  A    between atoms: _451  and  _454
REMARK  199  A    between atoms: _454  and  _455
REMARK  200  A    between atoms: _458  and  _460
REMARK  201  A    between atoms: _460  and  _461
REMARK  202  A    between atoms: _460  and  _463
REMARK  203  A    between atoms: _463  and  _464
REMARK  204  A    between atoms: _464  and  _465
REMARK  205  A    between atoms: _465  and  _466
REMARK  206  A    between atoms: _466  and  _467
REMARK  207  A    between atoms: _471  and  _473
REMARK  208  A    between atoms: _473  and  _474
REMARK  209  A    between atoms: _473  and  _476
REMARK  210  A    between atoms: _476  and  _477
REMARK  211  A    between atoms: _480  and  _482
REMARK  212  A    between atoms: _482  and  _483
REMARK  213  A    between atoms: _486  and  _488
REMARK  214  A    between atoms: _488  and  _489
REMARK  215  A    between atoms: _488  and  _491
REMARK  216  A    between atoms: _491  and  _492
REMARK  217  A    between atoms: _495  and  _497
REMARK  218  A    between atoms: _497  and  _498
REMARK  219  A    between atoms: _497  and  _500
REMARK  220  A    between atoms: _500  and  _501
REMARK  221  A    between atoms: _507  and  _509
REMARK  222  A    between atoms: _509  and  _510
REMARK  223  A    between atoms: _509  and  _512
REMARK  224  A    between atoms: _512  and  _513
REMARK  225  A    between atoms: _516  and  _518
REMARK  226  A    between atoms: _518  and  _519
REMARK  227  A    between atoms: _518  and  _521
REMARK  228  A    between atoms: _521  and  _522
REMARK  229  A    between atoms: _522  and  _523
REMARK  230  A    between atoms: _523  and  _524
REMARK  231  A    between atoms: _533  and  _535
REMARK  232  A    between atoms: _535  and  _536
REMARK  233  A    between atoms: _535  and  _538
REMARK  234  A    between atoms: _538  and  _539
REMARK                            x       y       z     vdW  Elec       q    Type
REMARK                         _______ _______ _______ _____ _____    ______ ____
ROOT
ATOM      1  O   HOH     1      -1.173  25.228   9.342  0.00  0.00    +0.000 OA
ENDROOT
TORSDOF 0
REMARK  Name = ../refined-set-2016/2fvd/2fvd_pocket.pdb
REMARK  234 active torsions:
REMARK  status: ('A' for Active; 'I' for Inactive)
REMARK    1  A    between atoms: _1  and  _3
REMARK    2  A    between atoms: _3  and  _4
REMARK    3  A    between atoms: _3  and  _6
REMARK    4  A    between atoms: _6  and  _7
REMARK    5  A    between atoms: _7  and  _8
REMARK    6  A    between atoms: _11  and  _13
REMARK    7  A    between atoms: _13  and  _14
REMARK    8  A    between atoms: _13  and  _16
REMARK    9  A    between atoms: _16  and  _17
REMARK   10  A    between atoms: _17  and  _18
REMARK   11  A    between atoms: _18  and  _19
REMARK   12  A    between atoms: _19  and  _20
REMARK   13  A    between atoms: _24  and  _26
REMARK   14  A    between atoms: _26  and  _27
REMARK   15  A    between atoms: _26  and  _29
REMARK   16  A    between atoms: _29  and  _30
REMARK   17  A    between atoms: _33  and  _35
REMARK   18  A    between atoms: _35  and  _36
REMARK   19  A    between atoms: _38  and  _40
REMARK   20  A    between atoms: _40  and  _41
REMARK   21  A    between atoms: _40  and  _43
REMARK   22  A    between atoms: _43  and  _44
REMARK   23  A    between atoms: _44  and  _45
REMARK   24  A    between atoms: _48  and  _50
REMARK   25  A    between atoms: _50  and  _51
REMARK   26  A    between atoms: _53  and  _55
REMARK   27  A    between atoms: _55  and  _56
REMARK   28  A    between atoms: _55  and  _58
REMARK   29  A    between atoms: _58  and  _59
REMARK   30  A    between atoms: _62  and  _64
REMARK   31  A    between atoms: _64  and  _65
REMARK   32  A    between atoms: _64  and  _67
REMARK   33  A    between atoms: _67  and  _68
REMARK   34  A    between atoms: _73  and  _74
REMARK   35  A    between atoms: _76  and  _78
REMARK   36  A    between atoms: _78  and  _79
REMARK   37  A    between atoms: _81  and  _83
REMARK   38  A    between atoms: _83  and  _84
REMARK   39  A    between atoms: _83  and  _86
REMARK   40  A    between atoms: _89  and  _91
REMARK   41  A    between atoms: _91  and  _92
REMARK   42  A    between atoms: _91  and  _94
REMARK   43  A    between atoms: _97  and  _99
REMARK   44  A    between atoms: _99  and  _100
REMARK   45  A    between atoms: _99  and  _102
REMARK   46  A    between atoms: _102  and  _103
REMARK   47  A    between atoms: _108  and  _109
REMARK   48  A    between atoms: _111  and  _113
REMARK   49  A    between atoms: _113  and  _114
REMARK   50  A    between atoms: _113  and  _116
REMARK   51  A    between atoms: _116  and  _117
REMARK   52  A    between atoms: _117  and  _118
REMARK   53  A    between atoms: _118  and  _119
REMARK   54  A    between atoms: _119  and  _120
REMARK   55  A    between atoms: _124  and  _126
REMARK   56  A    between atoms: _126  and  _127
REMARK   57  A    between atoms: _126  and  _129
REMARK   58  A    between atoms: _132  and  _134
REMARK   59  A    between atoms: _134  and  _135
REMARK   60  A    between atoms: _134  and  _137
REMARK   61  A    between atoms: _140  and  _142
REMARK   62  A    between atoms: _142  and  _143
REMARK   63  A    between atoms: _146  and  _148
REMARK   64  A    between atoms: _148  and  _149
REMARK   65  A    between atoms: _148  and  _151
REMARK   66  A    between atoms: _151  and  _152
REMARK   67  A    between atoms: _155  and  _157
REMARK   68  A    between atoms: _157  and  _158
REMARK   69  A    between atoms: _157  and  _160
REMARK   70  A    between atoms: _160  and  _161
REMARK   71  A    between atoms: _161  and  _162
REMARK   72  A    between atoms: _162  and  _163
REMARK   73  A    between atoms: _163  and  _164
REMARK   74  A    between atoms: _168  and  _170
REMARK   75  A    between atoms: _170  and  _171
REMARK   76  A    between atoms: _170  and  _173
REMARK   77  A    between atoms: _173  and  _174
REMARK   78  A    between atoms: _174  and  _175
REMARK   79  A    between atoms: _175  and  _176
REMARK   80  A    between atoms: _176  and  _177
REMARK   81  A    between atoms: _181  and  _183
REMARK   82  A    between atoms: _183  and  _184
REMARK   83  A    between atoms: _183  and  _186
REMARK   84  A    between atoms: _186  and  _187
REMARK   85  A    between atoms: _190  and  _192
REMARK   86  A    between atoms: _192  and  _193
REMARK   87  A    between atoms: _192  and  _195
REMARK   88  A    between atoms: _198  and  _200
REMARK   89  A    between atoms: _200  and  _201
REMARK   90  A    between atoms: _200  and  _203
REMARK   91  A    between atoms: _203  and  _204
REMARK   92  A    between atoms: _204  and  _205
REMARK   93  A    between atoms: _205  and  _206
REMARK   94  A    between atoms: _206  and  _207
REMARK   95  A    between atoms: _211  and  _213
REMARK   96  A    between atoms: _213  and  _214
REMARK   97  A    between atoms: _213  and  _216
REMARK   98  A    between atoms: _216  and  _217
REMARK   99  A    between atoms: _220  and  _222
REMARK  100  A    between atoms: _222  and  _223
REMARK  101  A    between atoms: _222  and  _225
REMARK  102  A    between atoms: _225  and  _226
REMARK  103  A    between atoms: _229  and  _231
REMARK  104  A    between atoms: _231  and  _232
REMARK  105  A    between atoms: _231  and  _234
REMARK  106  A    between atoms: _234  and  _235
REMARK  107  A    between atoms: _238  and  _240
REMARK  108  A    between atoms: _240  and  _241
REMARK  109  A    between atoms: _240  and  _243
REMARK  110  A    between atoms: _246  and  _248
REMARK  111  A    between atoms: _248  and  _249
REMARK  112  A    between atoms: _248  and  _251
REMARK  113  A    between atoms: _251  and  _252
REMARK  114  A    between atoms: _258  and  _260
REMARK  115  A    between atoms: _260  and  _261
REMARK  116  A    between atoms: _260  and  _263
REMARK  117  A    between atoms: _263  and  _264
REMARK  118  A    between atoms: _264  and  _265
REMARK  119  A    between atoms: _268  and  _270
REMARK  120  A    between atoms: _270  and  _271
REMARK  121  A    between atoms: _270  and  _273
REMARK  122  A    between atoms: _273  and  _274
REMARK  123  A    between atoms: _280  and  _282
REMARK  124  A    between atoms: _282  and  _283
REMARK  125  A    between atoms: _282  and  _285
REMARK  126  A    between atoms: _285  and  _286
REMARK  127  A    between atoms: _289  and  _291
REMARK  128  A    between atoms: _291  and  _292
REMARK  129  A    between atoms: _291  and  _294
REMARK  130  A    between atoms: _294  and  _295
REMARK  131  A    between atoms: _300  and  _302
REMARK  132  A    between atoms: _302  and  _303
REMARK  133  A    between atoms: _302  and  _305
REMARK  134  A    between atoms: _305  and  _306
REMARK  135  A    between atoms: _306  and  _307
REMARK  136  A    between atoms: _312  and  _314
REMARK  137  A    between atoms: _314  and  _315
REMARK  138  A    between atoms: _314  and  _317
REMARK  139  A    between atoms: _317  and  _318
REMARK  140  A    between atoms: _321  and  _323
REMARK  141  A    between atoms: _323  and  _324
REMARK  142  A    between atoms: _323  and  _326
REMARK  143  A    between atoms: _326  and  _327
REMARK  144  A    between atoms: _330  and  _332
REMARK  145  A    between atoms: _332  and  _333
REMARK  146  A    between atoms: _332  and  _335
REMARK  147  A    between atoms: _335  and  _336
REMARK  148  A    between atoms: _336  and  _337
REMARK  149  A    between atoms: _337  and  _338
REMARK  150  A    between atoms: _338  and  _339
REMARK  151  A    between atoms: _343  and  _345
REMARK  152  A    between atoms: _345  and  _346
REMARK  153  A    between atoms: _345  and  _348
REMARK  154  A    between atoms: _348  and  _349
REMARK  155  A    between atoms: _349  and  _350
REMARK  156  A    between atoms: _350  and  _351
REMARK  157  A    between atoms: _351  and  _352
REMARK  158  A    between atoms: _356  and  _358
REMARK  159  A    between atoms: _358  and  _359
REMARK  160  A    between atoms: _358  and  _361
REMARK  161  A    between atoms: _361  and  _362
REMARK  162  A    between atoms: _368  and  _370
REMARK  163  A    between atoms: _370  and  _371
REMARK  164  A    between atoms: _370  and  _373
REMARK  165  A    between atoms: _373  and  _374
REMARK  166  A    between atoms: _374  and  _375
REMARK  167  A    between atoms: _377  and  _379
REMARK  168  A    between atoms: _379  and  _380
REMARK  169  A    between atoms: _379  and  _382
REMARK  170  A    between atoms: _382  and  _383
REMARK  171  A    between atoms: _388  and  _390
REMARK  172  A    between atoms: _390  and  _391
REMARK  173  A    between atoms: _390  and  _393
REMARK  174  A    between atoms: _393  and  _394
REMARK  175  A    between atoms: _394  and  _395
REMARK  176  A    between atoms: _395  and  _396
REMARK  177  A    between atoms: _396  and  _397
REMARK  178  A    between atoms: _402  and  _403
REMARK  179  A    between atoms: _408  and  _410
REMARK  180  A    between atoms: _410  and  _411
REMARK  181  A    between atoms: _410  and  _413
REMARK  182  A    between atoms: _413  and  _414
REMARK  183  A    between atoms: _414  and  _415
REMARK  184  A    between atoms: _420  and  _422
REMARK  185  A    between atoms: _422  and  _423
REMARK  186  A    between atoms: _422  and  _425
REMARK  187  A    between atoms: _425  and  _426
REMARK  188  A    between atoms: _431  and  _433
REMARK  189  A    between atoms: _433  and  _434
REMARK  190  A    between atoms: _433  and  _436
REMARK  191  A    between atoms: _436  and  _437
REMARK  192  A    between atoms: _440  and  _442
REMARK  193  A    between atoms: _442  and  _443
REMARK  194  A    between atoms: _442  and  _445
REMARK  195  A    between atoms: _445  and  _446
REMARK  196  A    between atoms: _449  and  _451
REMARK  197  A    between atoms: _451  and  _452
REMARK  198  A    between atoms: _451  and  _454
REMARK  199  A    between atoms: _454  and  _455
REMARK  200  A    between atoms: _458  and  _460
REMARK  201  A    between atoms: _460  and  _461
REMARK  202  A    between atoms: _460  and  _463
REMARK  203  A    between atoms: _463  and  _464
REMARK  204  A    between atoms: _464  and  _465
REMARK  205  A    between atoms: _465  and  _466
REMARK  206  A    between atoms: _466  and  _467
REMARK  207  A    between atoms: _471  and  _473
REMARK  208  A    between atoms: _473  and  _474
REMARK  209  A    between atoms: _473  and  _476
REMARK  210  A    between atoms: _476  and  _477
REMARK  211  A    between atoms: _480  and  _482
REMARK  212  A    between atoms: _482  and  _483
REMARK  213  A    between atoms: _486  and  _488
REMARK  214  A    between atoms: _488  and  _489
REMARK  215  A    between atoms: _488  and  _491
REMARK  216  A    between atoms: _491  and  _492
REMARK  217  A    between atoms: _495  and  _497
REMARK  218  A    between atoms: _497  and  _498
REMARK  219  A    between atoms: _497  and  _500
REMARK  220  A    between atoms: _500  and  _501
REMARK  221  A    between atoms: _507  and  _509
REMARK  222  A    between atoms: _509  and  _510
REMARK  223  A    between atoms: _509  and  _512
REMARK  224  A    between atoms: _512  and  _513
REMARK  225  A    between atoms: _516  and  _518
REMARK  226  A    between atoms: _518  and  _519
REMARK  227  A    between atoms: _518  and  _521
REMARK  228  A    between atoms: _521  and  _522
REMARK  229  A    between atoms: _522  and  _523
REMARK  230  A    between atoms: _523  and  _524
REMARK  231  A    between atoms: _533  and  _535
REMARK  232  A    between atoms: _535  and  _536
REMARK  233  A    between atoms: _535  and  _538
REMARK  234  A    between atoms: _538  and  _539
REMARK                            x       y       z     vdW  Elec       q    Type
REMARK                         _______ _______ _______ _____ _____    ______ ____
ROOT
ATOM      1  O   HOH     1       4.065  26.164   1.973  0.00  0.00    +0.000 OA
ENDROOT
TORSDOF 0
REMARK  Name = ../refined-set-2016/2fvd/2fvd_pocket.pdb
REMARK  234 active torsions:
REMARK  status: ('A' for Active; 'I' for Inactive)
REMARK    1  A    between atoms: _1  and  _3
REMARK    2  A    between atoms: _3  and  _4
REMARK    3  A    between atoms: _3  and  _6
REMARK    4  A    between atoms: _6  and  _7
REMARK    5  A    between atoms: _7  and  _8
REMARK    6  A    between atoms: _11  and  _13
REMARK    7  A    between atoms: _13  and  _14
REMARK    8  A    between atoms: _13  and  _16
REMARK    9  A    between atoms: _16  and  _17
REMARK   10  A    between atoms: _17  and  _18
REMARK   11  A    between atoms: _18  and  _19
REMARK   12  A    between atoms: _19  and  _20
REMARK   13  A    between atoms: _24  and  _26
REMARK   14  A    between atoms: _26  and  _27
REMARK   15  A    between atoms: _26  and  _29
REMARK   16  A    between atoms: _29  and  _30
REMARK   17  A    between atoms: _33  and  _35
REMARK   18  A    between atoms: _35  and  _36
REMARK   19  A    between atoms: _38  and  _40
REMARK   20  A    between atoms: _40  and  _41
REMARK   21  A    between atoms: _40  and  _43
REMARK   22  A    between atoms: _43  and  _44
REMARK   23  A    between atoms: _44  and  _45
REMARK   24  A    between atoms: _48  and  _50
REMARK   25  A    between atoms: _50  and  _51
REMARK   26  A    between atoms: _53  and  _55
REMARK   27  A    between atoms: _55  and  _56
REMARK   28  A    between atoms: _55  and  _58
REMARK   29  A    between atoms: _58  and  _59
REMARK   30  A    between atoms: _62  and  _64
REMARK   31  A    between atoms: _64  and  _65
REMARK   32  A    between atoms: _64  and  _67
REMARK   33  A    between atoms: _67  and  _68
REMARK   34  A    between atoms: _73  and  _74
REMARK   35  A    between atoms: _76  and  _78
REMARK   36  A    between atoms: _78  and  _79
REMARK   37  A    between atoms: _81  and  _83
REMARK   38  A    between atoms: _83  and  _84
REMARK   39  A    between atoms: _83  and  _86
REMARK   40  A    between atoms: _89  and  _91
REMARK   41  A    between atoms: _91  and  _92
REMARK   42  A    between atoms: _91  and  _94
REMARK   43  A    between atoms: _97  and  _99
REMARK   44  A    between atoms: _99  and  _100
REMARK   45  A    between atoms: _99  and  _102
REMARK   46  A    between atoms: _102  and  _103
REMARK   47  A    between atoms: _108  and  _109
REMARK   48  A    between atoms: _111  and  _113
REMARK   49  A    between atoms: _113  and  _114
REMARK   50  A    between atoms: _113  and  _116
REMARK   51  A    between atoms: _116  and  _117
REMARK   52  A    between atoms: _117  and  _118
REMARK   53  A    between atoms: _118  and  _119
REMARK   54  A    between atoms: _119  and  _120
REMARK   55  A    between atoms: _124  and  _126
REMARK   56  A    between atoms: _126  and  _127
REMARK   57  A    between atoms: _126  and  _129
REMARK   58  A    between atoms: _132  and  _134
REMARK   59  A    between atoms: _134  and  _135
REMARK   60  A    between atoms: _134  and  _137
REMARK   61  A    between atoms: _140  and  _142
REMARK   62  A    between atoms: _142  and  _143
REMARK   63  A    between atoms: _146  and  _148
REMARK   64  A    between atoms: _148  and  _149
REMARK   65  A    between atoms: _148  and  _151
REMARK   66  A    between atoms: _151  and  _152
REMARK   67  A    between atoms: _155  and  _157
REMARK   68  A    between atoms: _157  and  _158
REMARK   69  A    between atoms: _157  and  _160
REMARK   70  A    between atoms: _160  and  _161
REMARK   71  A    between atoms: _161  and  _162
REMARK   72  A    between atoms: _162  and  _163
REMARK   73  A    between atoms: _163  and  _164
REMARK   74  A    between atoms: _168  and  _170
REMARK   75  A    between atoms: _170  and  _171
REMARK   76  A    between atoms: _170  and  _173
REMARK   77  A    between atoms: _173  and  _174
REMARK   78  A    between atoms: _174  and  _175
REMARK   79  A    between atoms: _175  and  _176
REMARK   80  A    between atoms: _176  and  _177
REMARK   81  A    between atoms: _181  and  _183
REMARK   82  A    between atoms: _183  and  _184
REMARK   83  A    between atoms: _183  and  _186
REMARK   84  A    between atoms: _186  and  _187
REMARK   85  A    between atoms: _190  and  _192
REMARK   86  A    between atoms: _192  and  _193
REMARK   87  A    between atoms: _192  and  _195
REMARK   88  A    between atoms: _198  and  _200
REMARK   89  A    between atoms: _200  and  _201
REMARK   90  A    between atoms: _200  and  _203
REMARK   91  A    between atoms: _203  and  _204
REMARK   92  A    between atoms: _204  and  _205
REMARK   93  A    between atoms: _205  and  _206
REMARK   94  A    between atoms: _206  and  _207
REMARK   95  A    between atoms: _211  and  _213
REMARK   96  A    between atoms: _213  and  _214
REMARK   97  A    between atoms: _213  and  _216
REMARK   98  A    between atoms: _216  and  _217
REMARK   99  A    between atoms: _220  and  _222
REMARK  100  A    between atoms: _222  and  _223
REMARK  101  A    between atoms: _222  and  _225
REMARK  102  A    between atoms: _225  and  _226
REMARK  103  A    between atoms: _229  and  _231
REMARK  104  A    between atoms: _231  and  _232
REMARK  105  A    between atoms: _231  and  _234
REMARK  106  A    between atoms: _234  and  _235
REMARK  107  A    between atoms: _238  and  _240
REMARK  108  A    between atoms: _240  and  _241
REMARK  109  A    between atoms: _240  and  _243
REMARK  110  A    between atoms: _246  and  _248
REMARK  111  A    between atoms: _248  and  _249
REMARK  112  A    between atoms: _248  and  _251
REMARK  113  A    between atoms: _251  and  _252
REMARK  114  A    between atoms: _258  and  _260
REMARK  115  A    between atoms: _260  and  _261
REMARK  116  A    between atoms: _260  and  _263
REMARK  117  A    between atoms: _263  and  _264
REMARK  118  A    between atoms: _264  and  _265
REMARK  119  A    between atoms: _268  and  _270
REMARK  120  A    between atoms: _270  and  _271
REMARK  121  A    between atoms: _270  and  _273
REMARK  122  A    between atoms: _273  and  _274
REMARK  123  A    between atoms: _280  and  _282
REMARK  124  A    between atoms: _282  and  _283
REMARK  125  A    between atoms: _282  and  _285
REMARK  126  A    between atoms: _285  and  _286
REMARK  127  A    between atoms: _289  and  _291
REMARK  128  A    between atoms: _291  and  _292
REMARK  129  A    between atoms: _291  and  _294
REMARK  130  A    between atoms: _294  and  _295
REMARK  131  A    between atoms: _300  and  _302
REMARK  132  A    between atoms: _302  and  _303
REMARK  133  A    between atoms: _302  and  _305
REMARK  134  A    between atoms: _305  and  _306
REMARK  135  A    between atoms: _306  and  _307
REMARK  136  A    between atoms: _312  and  _314
REMARK  137  A    between atoms: _314  and  _315
REMARK  138  A    between atoms: _314  and  _317
REMARK  139  A    between atoms: _317  and  _318
REMARK  140  A    between atoms: _321  and  _323
REMARK  141  A    between atoms: _323  and  _324
REMARK  142  A    between atoms: _323  and  _326
REMARK  143  A    between atoms: _326  and  _327
REMARK  144  A    between atoms: _330  and  _332
REMARK  145  A    between atoms: _332  and  _333
REMARK  146  A    between atoms: _332  and  _335
REMARK  147  A    between atoms: _335  and  _336
REMARK  148  A    between atoms: _336  and  _337
REMARK  149  A    between atoms: _337  and  _338
REMARK  150  A    between atoms: _338  and  _339
REMARK  151  A    between atoms: _343  and  _345
REMARK  152  A    between atoms: _345  and  _346
REMARK  153  A    between atoms: _345  and  _348
REMARK  154  A    between atoms: _348  and  _349
REMARK  155  A    between atoms: _349  and  _350
REMARK  156  A    between atoms: _350  and  _351
REMARK  157  A    between atoms: _351  and  _352
REMARK  158  A    between atoms: _356  and  _358
REMARK  159  A    between atoms: _358  and  _359
REMARK  160  A    between atoms: _358  and  _361
REMARK  161  A    between atoms: _361  and  _362
REMARK  162  A    between atoms: _368  and  _370
REMARK  163  A    between atoms: _370  and  _371
REMARK  164  A    between atoms: _370  and  _373
REMARK  165  A    between atoms: _373  and  _374
REMARK  166  A    between atoms: _374  and  _375
REMARK  167  A    between atoms: _377  and  _379
REMARK  168  A    between atoms: _379  and  _380
REMARK  169  A    between atoms: _379  and  _382
REMARK  170  A    between atoms: _382  and  _383
REMARK  171  A    between atoms: _388  and  _390
REMARK  172  A    between atoms: _390  and  _391
REMARK  173  A    between atoms: _390  and  _393
REMARK  174  A    between atoms: _393  and  _394
REMARK  175  A    between atoms: _394  and  _395
REMARK  176  A    between atoms: _395  and  _396
REMARK  177  A    between atoms: _396  and  _397
REMARK  178  A    between atoms: _402  and  _403
REMARK  179  A    between atoms: _408  and  _410
REMARK  180  A    between atoms: _410  and  _411
REMARK  181  A    between atoms: _410  and  _413
REMARK  182  A    between atoms: _413  and  _414
REMARK  183  A    between atoms: _414  and  _415
REMARK  184  A    between atoms: _420  and  _422
REMARK  185  A    between atoms: _422  and  _423
REMARK  186  A    between atoms: _422  and  _425
REMARK  187  A    between atoms: _425  and  _426
REMARK  188  A    between atoms: _431  and  _433
REMARK  189  A    between atoms: _433  and  _434
REMARK  190  A    between atoms: _433  and  _436
REMARK  191  A    between atoms: _436  and  _437
REMARK  192  A    between atoms: _440  and  _442
REMARK  193  A    between atoms: _442  and  _443
REMARK  194  A    between atoms: _442  and  _445
REMARK  195  A    between atoms: _445  and  _446
REMARK  196  A    between atoms: _449  and  _451
REMARK  197  A    between atoms: _451  and  _452
REMARK  198  A    between atoms: _451  and  _454
REMARK  199  A    between atoms: _454  and  _455
REMARK  200  A    between atoms: _458  and  _460
REMARK  201  A    between atoms: _460  and  _461
REMARK  202  A    between atoms: _460  and  _463
REMARK  203  A    between atoms: _463  and  _464
REMARK  204  A    between atoms: _464  and  _465
REMARK  205  A    between atoms: _465  and  _466
REMARK  206  A    between atoms: _466  and  _467
REMARK  207  A    between atoms: _471  and  _473
REMARK  208  A    between atoms: _473  and  _474
REMARK  209  A    between atoms: _473  and  _476
REMARK  210  A    between atoms: _476  and  _477
REMARK  211  A    between atoms: _480  and  _482
REMARK  212  A    between atoms: _482  and  _483
REMARK  213  A    between atoms: _486  and  _488
REMARK  214  A    between atoms: _488  and  _489
REMARK  215  A    between atoms: _488  and  _491
REMARK  216  A    between atoms: _491  and  _492
REMARK  217  A    between atoms: _495  and  _497
REMARK  218  A    between atoms: _497  and  _498
REMARK  219  A    between atoms: _497  and  _500
REMARK  220  A    between atoms: _500  and  _501
REMARK  221  A    between atoms: _507  and  _509
REMARK  222  A    between atoms: _509  and  _510
REMARK  223  A    between atoms: _509  and  _512
REMARK  224  A    between atoms: _512  and  _513
REMARK  225  A    between atoms: _516  and  _518
REMARK  226  A    between atoms: _518  and  _519
REMARK  227  A    between atoms: _518  and  _521
REMARK  228  A    between atoms: _521  and  _522
REMARK  229  A    between atoms: _522  and  _523
REMARK  230  A    between atoms: _523  and  _524
REMARK  231  A    between atoms: _533  and  _535
REMARK  232  A    between atoms: _535  and  _536
REMARK  233  A    between atoms: _535  and  _538
REMARK  234  A    between atoms: _538  and  _539
REMARK                            x       y       z     vdW  Elec       q    Type
REMARK                         _______ _______ _______ _____ _____    ______ ____
ROOT
ATOM      1  O   HOH     1       4.099  23.875   3.207  0.00  0.00    +0.000 OA
ENDROOT
TORSDOF 0
REMARK  Name = ../refined-set-2016/2fvd/2fvd_pocket.pdb
REMARK  234 active torsions:
REMARK  status: ('A' for Active; 'I' for Inactive)
REMARK    1  A    between atoms: _1  and  _3
REMARK    2  A    between atoms: _3  and  _4
REMARK    3  A    between atoms: _3  and  _6
REMARK    4  A    between atoms: _6  and  _7
REMARK    5  A    between atoms: _7  and  _8
REMARK    6  A    between atoms: _11  and  _13
REMARK    7  A    between atoms: _13  and  _14
REMARK    8  A    between atoms: _13  and  _16
REMARK    9  A    between atoms: _16  and  _17
REMARK   10  A    between atoms: _17  and  _18
REMARK   11  A    between atoms: _18  and  _19
REMARK   12  A    between atoms: _19  and  _20
REMARK   13  A    between atoms: _24  and  _26
REMARK   14  A    between atoms: _26  and  _27
REMARK   15  A    between atoms: _26  and  _29
REMARK   16  A    between atoms: _29  and  _30
REMARK   17  A    between atoms: _33  and  _35
REMARK   18  A    between atoms: _35  and  _36
REMARK   19  A    between atoms: _38  and  _40
REMARK   20  A    between atoms: _40  and  _41
REMARK   21  A    between atoms: _40  and  _43
REMARK   22  A    between atoms: _43  and  _44
REMARK   23  A    between atoms: _44  and  _45
REMARK   24  A    between atoms: _48  and  _50
REMARK   25  A    between atoms: _50  and  _51
REMARK   26  A    between atoms: _53  and  _55
REMARK   27  A    between atoms: _55  and  _56
REMARK   28  A    between atoms: _55  and  _58
REMARK   29  A    between atoms: _58  and  _59
REMARK   30  A    between atoms: _62  and  _64
REMARK   31  A    between atoms: _64  and  _65
REMARK   32  A    between atoms: _64  and  _67
REMARK   33  A    between atoms: _67  and  _68
REMARK   34  A    between atoms: _73  and  _74
REMARK   35  A    between atoms: _76  and  _78
REMARK   36  A    between atoms: _78  and  _79
REMARK   37  A    between atoms: _81  and  _83
REMARK   38  A    between atoms: _83  and  _84
REMARK   39  A    between atoms: _83  and  _86
REMARK   40  A    between atoms: _89  and  _91
REMARK   41  A    between atoms: _91  and  _92
REMARK   42  A    between atoms: _91  and  _94
REMARK   43  A    between atoms: _97  and  _99
REMARK   44  A    between atoms: _99  and  _100
REMARK   45  A    between atoms: _99  and  _102
REMARK   46  A    between atoms: _102  and  _103
REMARK   47  A    between atoms: _108  and  _109
REMARK   48  A    between atoms: _111  and  _113
REMARK   49  A    between atoms: _113  and  _114
REMARK   50  A    between atoms: _113  and  _116
REMARK   51  A    between atoms: _116  and  _117
REMARK   52  A    between atoms: _117  and  _118
REMARK   53  A    between atoms: _118  and  _119
REMARK   54  A    between atoms: _119  and  _120
REMARK   55  A    between atoms: _124  and  _126
REMARK   56  A    between atoms: _126  and  _127
REMARK   57  A    between atoms: _126  and  _129
REMARK   58  A    between atoms: _132  and  _134
REMARK   59  A    between atoms: _134  and  _135
REMARK   60  A    between atoms: _134  and  _137
REMARK   61  A    between atoms: _140  and  _142
REMARK   62  A    between atoms: _142  and  _143
REMARK   63  A    between atoms: _146  and  _148
REMARK   64  A    between atoms: _148  and  _149
REMARK   65  A    between atoms: _148  and  _151
REMARK   66  A    between atoms: _151  and  _152
REMARK   67  A    between atoms: _155  and  _157
REMARK   68  A    between atoms: _157  and  _158
REMARK   69  A    between atoms: _157  and  _160
REMARK   70  A    between atoms: _160  and  _161
REMARK   71  A    between atoms: _161  and  _162
REMARK   72  A    between atoms: _162  and  _163
REMARK   73  A    between atoms: _163  and  _164
REMARK   74  A    between atoms: _168  and  _170
REMARK   75  A    between atoms: _170  and  _171
REMARK   76  A    between atoms: _170  and  _173
REMARK   77  A    between atoms: _173  and  _174
REMARK   78  A    between atoms: _174  and  _175
REMARK   79  A    between atoms: _175  and  _176
REMARK   80  A    between atoms: _176  and  _177
REMARK   81  A    between atoms: _181  and  _183
REMARK   82  A    between atoms: _183  and  _184
REMARK   83  A    between atoms: _183  and  _186
REMARK   84  A    between atoms: _186  and  _187
REMARK   85  A    between atoms: _190  and  _192
REMARK   86  A    between atoms: _192  and  _193
REMARK   87  A    between atoms: _192  and  _195
REMARK   88  A    between atoms: _198  and  _200
REMARK   89  A    between atoms: _200  and  _201
REMARK   90  A    between atoms: _200  and  _203
REMARK   91  A    between atoms: _203  and  _204
REMARK   92  A    between atoms: _204  and  _205
REMARK   93  A    between atoms: _205  and  _206
REMARK   94  A    between atoms: _206  and  _207
REMARK   95  A    between atoms: _211  and  _213
REMARK   96  A    between atoms: _213  and  _214
REMARK   97  A    between atoms: _213  and  _216
REMARK   98  A    between atoms: _216  and  _217
REMARK   99  A    between atoms: _220  and  _222
REMARK  100  A    between atoms: _222  and  _223
REMARK  101  A    between atoms: _222  and  _225
REMARK  102  A    between atoms: _225  and  _226
REMARK  103  A    between atoms: _229  and  _231
REMARK  104  A    between atoms: _231  and  _232
REMARK  105  A    between atoms: _231  and  _234
REMARK  106  A    between atoms: _234  and  _235
REMARK  107  A    between atoms: _238  and  _240
REMARK  108  A    between atoms: _240  and  _241
REMARK  109  A    between atoms: _240  and  _243
REMARK  110  A    between atoms: _246  and  _248
REMARK  111  A    between atoms: _248  and  _249
REMARK  112  A    between atoms: _248  and  _251
REMARK  113  A    between atoms: _251  and  _252
REMARK  114  A    between atoms: _258  and  _260
REMARK  115  A    between atoms: _260  and  _261
REMARK  116  A    between atoms: _260  and  _263
REMARK  117  A    between atoms: _263  and  _264
REMARK  118  A    between atoms: _264  and  _265
REMARK  119  A    between atoms: _268  and  _270
REMARK  120  A    between atoms: _270  and  _271
REMARK  121  A    between atoms: _270  and  _273
REMARK  122  A    between atoms: _273  and  _274
REMARK  123  A    between atoms: _280  and  _282
REMARK  124  A    between atoms: _282  and  _283
REMARK  125  A    between atoms: _282  and  _285
REMARK  126  A    between atoms: _285  and  _286
REMARK  127  A    between atoms: _289  and  _291
REMARK  128  A    between atoms: _291  and  _292
REMARK  129  A    between atoms: _291  and  _294
REMARK  130  A    between atoms: _294  and  _295
REMARK  131  A    between atoms: _300  and  _302
REMARK  132  A    between atoms: _302  and  _303
REMARK  133  A    between atoms: _302  and  _305
REMARK  134  A    between atoms: _305  and  _306
REMARK  135  A    between atoms: _306  and  _307
REMARK  136  A    between atoms: _312  and  _314
REMARK  137  A    between atoms: _314  and  _315
REMARK  138  A    between atoms: _314  and  _317
REMARK  139  A    between atoms: _317  and  _318
REMARK  140  A    between atoms: _321  and  _323
REMARK  141  A    between atoms: _323  and  _324
REMARK  142  A    between atoms: _323  and  _326
REMARK  143  A    between atoms: _326  and  _327
REMARK  144  A    between atoms: _330  and  _332
REMARK  145  A    between atoms: _332  and  _333
REMARK  146  A    between atoms: _332  and  _335
REMARK  147  A    between atoms: _335  and  _336
REMARK  148  A    between atoms: _336  and  _337
REMARK  149  A    between atoms: _337  and  _338
REMARK  150  A    between atoms: _338  and  _339
REMARK  151  A    between atoms: _343  and  _345
REMARK  152  A    between atoms: _345  and  _346
REMARK  153  A    between atoms: _345  and  _348
REMARK  154  A    between atoms: _348  and  _349
REMARK  155  A    between atoms: _349  and  _350
REMARK  156  A    between atoms: _350  and  _351
REMARK  157  A    between atoms: _351  and  _352
REMARK  158  A    between atoms: _356  and  _358
REMARK  159  A    between atoms: _358  and  _359
REMARK  160  A    between atoms: _358  and  _361
REMARK  161  A    between atoms: _361  and  _362
REMARK  162  A    between atoms: _368  and  _370
REMARK  163  A    between atoms: _370  and  _371
REMARK  164  A    between atoms: _370  and  _373
REMARK  165  A    between atoms: _373  and  _374
REMARK  166  A    between atoms: _374  and  _375
REMARK  167  A    between atoms: _377  and  _379
REMARK  168  A    between atoms: _379  and  _380
REMARK  169  A    between atoms: _379  and  _382
REMARK  170  A    between atoms: _382  and  _383
REMARK  171  A    between atoms: _388  and  _390
REMARK  172  A    between atoms: _390  and  _391
REMARK  173  A    between atoms: _390  and  _393
REMARK  174  A    between atoms: _393  and  _394
REMARK  175  A    between atoms: _394  and  _395
REMARK  176  A    between atoms: _395  and  _396
REMARK  177  A    between atoms: _396  and  _397
REMARK  178  A    between atoms: _402  and  _403
REMARK  179  A    between atoms: _408  and  _410
REMARK  180  A    between atoms: _410  and  _411
REMARK  181  A    between atoms: _410  and  _413
REMARK  182  A    between atoms: _413  and  _414
REMARK  183  A    between atoms: _414  and  _415
REMARK  184  A    between atoms: _420  and  _422
REMARK  185  A    between atoms: _422  and  _423
REMARK  186  A    between atoms: _422  and  _425
REMARK  187  A    between atoms: _425  and  _426
REMARK  188  A    between atoms: _431  and  _433
REMARK  189  A    between atoms: _433  and  _434
REMARK  190  A    between atoms: _433  and  _436
REMARK  191  A    between atoms: _436  and  _437
REMARK  192  A    between atoms: _440  and  _442
REMARK  193  A    between atoms: _442  and  _443
REMARK  194  A    between atoms: _442  and  _445
REMARK  195  A    between atoms: _445  and  _446
REMARK  196  A    between atoms: _449  and  _451
REMARK  197  A    between atoms: _451  and  _452
REMARK  198  A    between atoms: _451  and  _454
REMARK  199  A    between atoms: _454  and  _455
REMARK  200  A    between atoms: _458  and  _460
REMARK  201  A    between atoms: _460  and  _461
REMARK  202  A    between atoms: _460  and  _463
REMARK  203  A    between atoms: _463  and  _464
REMARK  204  A    between atoms: _464  and  _465
REMARK  205  A    between atoms: _465  and  _466
REMARK  206  A    between atoms: _466  and  _467
REMARK  207  A    between atoms: _471  and  _473
REMARK  208  A    between atoms: _473  and  _474
REMARK  209  A    between atoms: _473  and  _476
REMARK  210  A    between atoms: _476  and  _477
REMARK  211  A    between atoms: _480  and  _482
REMARK  212  A    between atoms: _482  and  _483
REMARK  213  A    between atoms: _486  and  _488
REMARK  214  A    between atoms: _488  and  _489
REMARK  215  A    between atoms: _488  and  _491
REMARK  216  A    between atoms: _491  and  _492
REMARK  217  A    between atoms: _495  and  _497
REMARK  218  A    between atoms: _497  and  _498
REMARK  219  A    between atoms: _497  and  _500
REMARK  220  A    between atoms: _500  and  _501
REMARK  221  A    between atoms: _507  and  _509
REMARK  222  A    between atoms: _509  and  _510
REMARK  223  A    between atoms: _509  and  _512
REMARK  224  A    between atoms: _512  and  _513
REMARK  225  A    between atoms: _516  and  _518
REMARK  226  A    between atoms: _518  and  _519
REMARK  227  A    between atoms: _518  and  _521
REMARK  228  A    between atoms: _521  and  _522
REMARK  229  A    between atoms: _522  and  _523
REMARK  230  A    between atoms: _523  and  _524
REMARK  231  A    between atoms: _533  and  _535
REMARK  232  A    between atoms: _535  and  _536
REMARK  233  A    between atoms: _535  and  _538
REMARK  234  A    between atoms: _538  and  _539
REMARK                            x       y       z     vdW  Elec       q    Type
REMARK                         _______ _______ _______ _____ _____    ______ ____
ROOT
ATOM      1  O   HOH     1       3.365  22.622   5.836  0.00  0.00    +0.000 OA
ENDROOT
TORSDOF 0
REMARK  Name = ../refined-set-2016/2fvd/2fvd_pocket.pdb
REMARK  234 active torsions:
REMARK  status: ('A' for Active; 'I' for Inactive)
REMARK    1  A    between atoms: _1  and  _3
REMARK    2  A    between atoms: _3  and  _4
REMARK    3  A    between atoms: _3  and  _6
REMARK    4  A    between atoms: _6  and  _7
REMARK    5  A    between atoms: _7  and  _8
REMARK    6  A    between atoms: _11  and  _13
REMARK    7  A    between atoms: _13  and  _14
REMARK    8  A    between atoms: _13  and  _16
REMARK    9  A    between atoms: _16  and  _17
REMARK   10  A    between atoms: _17  and  _18
REMARK   11  A    between atoms: _18  and  _19
REMARK   12  A    between atoms: _19  and  _20
REMARK   13  A    between atoms: _24  and  _26
REMARK   14  A    between atoms: _26  and  _27
REMARK   15  A    between atoms: _26  and  _29
REMARK   16  A    between atoms: _29  and  _30
REMARK   17  A    between atoms: _33  and  _35
REMARK   18  A    between atoms: _35  and  _36
REMARK   19  A    between atoms: _38  and  _40
REMARK   20  A    between atoms: _40  and  _41
REMARK   21  A    between atoms: _40  and  _43
REMARK   22  A    between atoms: _43  and  _44
REMARK   23  A    between atoms: _44  and  _45
REMARK   24  A    between atoms: _48  and  _50
REMARK   25  A    between atoms: _50  and  _51
REMARK   26  A    between atoms: _53  and  _55
REMARK   27  A    between atoms: _55  and  _56
REMARK   28  A    between atoms: _55  and  _58
REMARK   29  A    between atoms: _58  and  _59
REMARK   30  A    between atoms: _62  and  _64
REMARK   31  A    between atoms: _64  and  _65
REMARK   32  A    between atoms: _64  and  _67
REMARK   33  A    between atoms: _67  and  _68
REMARK   34  A    between atoms: _73  and  _74
REMARK   35  A    between atoms: _76  and  _78
REMARK   36  A    between atoms: _78  and  _79
REMARK   37  A    between atoms: _81  and  _83
REMARK   38  A    between atoms: _83  and  _84
REMARK   39  A    between atoms: _83  and  _86
REMARK   40  A    between atoms: _89  and  _91
REMARK   41  A    between atoms: _91  and  _92
REMARK   42  A    between atoms: _91  and  _94
REMARK   43  A    between atoms: _97  and  _99
REMARK   44  A    between atoms: _99  and  _100
REMARK   45  A    between atoms: _99  and  _102
REMARK   46  A    between atoms: _102  and  _103
REMARK   47  A    between atoms: _108  and  _109
REMARK   48  A    between atoms: _111  and  _113
REMARK   49  A    between atoms: _113  and  _114
REMARK   50  A    between atoms: _113  and  _116
REMARK   51  A    between atoms: _116  and  _117
REMARK   52  A    between atoms: _117  and  _118
REMARK   53  A    between atoms: _118  and  _119
REMARK   54  A    between atoms: _119  and  _120
REMARK   55  A    between atoms: _124  and  _126
REMARK   56  A    between atoms: _126  and  _127
REMARK   57  A    between atoms: _126  and  _129
REMARK   58  A    between atoms: _132  and  _134
REMARK   59  A    between atoms: _134  and  _135
REMARK   60  A    between atoms: _134  and  _137
REMARK   61  A    between atoms: _140  and  _142
REMARK   62  A    between atoms: _142  and  _143
REMARK   63  A    between atoms: _146  and  _148
REMARK   64  A    between atoms: _148  and  _149
REMARK   65  A    between atoms: _148  and  _151
REMARK   66  A    between atoms: _151  and  _152
REMARK   67  A    between atoms: _155  and  _157
REMARK   68  A    between atoms: _157  and  _158
REMARK   69  A    between atoms: _157  and  _160
REMARK   70  A    between atoms: _160  and  _161
REMARK   71  A    between atoms: _161  and  _162
REMARK   72  A    between atoms: _162  and  _163
REMARK   73  A    between atoms: _163  and  _164
REMARK   74  A    between atoms: _168  and  _170
REMARK   75  A    between atoms: _170  and  _171
REMARK   76  A    between atoms: _170  and  _173
REMARK   77  A    between atoms: _173  and  _174
REMARK   78  A    between atoms: _174  and  _175
REMARK   79  A    between atoms: _175  and  _176
REMARK   80  A    between atoms: _176  and  _177
REMARK   81  A    between atoms: _181  and  _183
REMARK   82  A    between atoms: _183  and  _184
REMARK   83  A    between atoms: _183  and  _186
REMARK   84  A    between atoms: _186  and  _187
REMARK   85  A    between atoms: _190  and  _192
REMARK   86  A    between atoms: _192  and  _193
REMARK   87  A    between atoms: _192  and  _195
REMARK   88  A    between atoms: _198  and  _200
REMARK   89  A    between atoms: _200  and  _201
REMARK   90  A    between atoms: _200  and  _203
REMARK   91  A    between atoms: _203  and  _204
REMARK   92  A    between atoms: _204  and  _205
REMARK   93  A    between atoms: _205  and  _206
REMARK   94  A    between atoms: _206  and  _207
REMARK   95  A    between atoms: _211  and  _213
REMARK   96  A    between atoms: _213  and  _214
REMARK   97  A    between atoms: _213  and  _216
REMARK   98  A    between atoms: _216  and  _217
REMARK   99  A    between atoms: _220  and  _222
REMARK  100  A    between atoms: _222  and  _223
REMARK  101  A    between atoms: _222  and  _225
REMARK  102  A    between atoms: _225  and  _226
REMARK  103  A    between atoms: _229  and  _231
REMARK  104  A    between atoms: _231  and  _232
REMARK  105  A    between atoms: _231  and  _234
REMARK  106  A    between atoms: _234  and  _235
REMARK  107  A    between atoms: _238  and  _240
REMARK  108  A    between atoms: _240  and  _241
REMARK  109  A    between atoms: _240  and  _243
REMARK  110  A    between atoms: _246  and  _248
REMARK  111  A    between atoms: _248  and  _249
REMARK  112  A    between atoms: _248  and  _251
REMARK  113  A    between atoms: _251  and  _252
REMARK  114  A    between atoms: _258  and  _260
REMARK  115  A    between atoms: _260  and  _261
REMARK  116  A    between atoms: _260  and  _263
REMARK  117  A    between atoms: _263  and  _264
REMARK  118  A    between atoms: _264  and  _265
REMARK  119  A    between atoms: _268  and  _270
REMARK  120  A    between atoms: _270  and  _271
REMARK  121  A    between atoms: _270  and  _273
REMARK  122  A    between atoms: _273  and  _274
REMARK  123  A    between atoms: _280  and  _282
REMARK  124  A    between atoms: _282  and  _283
REMARK  125  A    between atoms: _282  and  _285
REMARK  126  A    between atoms: _285  and  _286
REMARK  127  A    between atoms: _289  and  _291
REMARK  128  A    between atoms: _291  and  _292
REMARK  129  A    between atoms: _291  and  _294
REMARK  130  A    between atoms: _294  and  _295
REMARK  131  A    between atoms: _300  and  _302
REMARK  132  A    between atoms: _302  and  _303
REMARK  133  A    between atoms: _302  and  _305
REMARK  134  A    between atoms: _305  and  _306
REMARK  135  A    between atoms: _306  and  _307
REMARK  136  A    between atoms: _312  and  _314
REMARK  137  A    between atoms: _314  and  _315
REMARK  138  A    between atoms: _314  and  _317
REMARK  139  A    between atoms: _317  and  _318
REMARK  140  A    between atoms: _321  and  _323
REMARK  141  A    between atoms: _323  and  _324
REMARK  142  A    between atoms: _323  and  _326
REMARK  143  A    between atoms: _326  and  _327
REMARK  144  A    between atoms: _330  and  _332
REMARK  145  A    between atoms: _332  and  _333
REMARK  146  A    between atoms: _332  and  _335
REMARK  147  A    between atoms: _335  and  _336
REMARK  148  A    between atoms: _336  and  _337
REMARK  149  A    between atoms: _337  and  _338
REMARK  150  A    between atoms: _338  and  _339
REMARK  151  A    between atoms: _343  and  _345
REMARK  152  A    between atoms: _345  and  _346
REMARK  153  A    between atoms: _345  and  _348
REMARK  154  A    between atoms: _348  and  _349
REMARK  155  A    between atoms: _349  and  _350
REMARK  156  A    between atoms: _350  and  _351
REMARK  157  A    between atoms: _351  and  _352
REMARK  158  A    between atoms: _356  and  _358
REMARK  159  A    between atoms: _358  and  _359
REMARK  160  A    between atoms: _358  and  _361
REMARK  161  A    between atoms: _361  and  _362
REMARK  162  A    between atoms: _368  and  _370
REMARK  163  A    between atoms: _370  and  _371
REMARK  164  A    between atoms: _370  and  _373
REMARK  165  A    between atoms: _373  and  _374
REMARK  166  A    between atoms: _374  and  _375
REMARK  167  A    between atoms: _377  and  _379
REMARK  168  A    between atoms: _379  and  _380
REMARK  169  A    between atoms: _379  and  _382
REMARK  170  A    between atoms: _382  and  _383
REMARK  171  A    between atoms: _388  and  _390
REMARK  172  A    between atoms: _390  and  _391
REMARK  173  A    between atoms: _390  and  _393
REMARK  174  A    between atoms: _393  and  _394
REMARK  175  A    between atoms: _394  and  _395
REMARK  176  A    between atoms: _395  and  _396
REMARK  177  A    between atoms: _396  and  _397
REMARK  178  A    between atoms: _402  and  _403
REMARK  179  A    between atoms: _408  and  _410
REMARK  180  A    between atoms: _410  and  _411
REMARK  181  A    between atoms: _410  and  _413
REMARK  182  A    between atoms: _413  and  _414
REMARK  183  A    between atoms: _414  and  _415
REMARK  184  A    between atoms: _420  and  _422
REMARK  185  A    between atoms: _422  and  _423
REMARK  186  A    between atoms: _422  and  _425
REMARK  187  A    between atoms: _425  and  _426
REMARK  188  A    between atoms: _431  and  _433
REMARK  189  A    between atoms: _433  and  _434
REMARK  190  A    between atoms: _433  and  _436
REMARK  191  A    between atoms: _436  and  _437
REMARK  192  A    between atoms: _440  and  _442
REMARK  193  A    between atoms: _442  and  _443
REMARK  194  A    between atoms: _442  and  _445
REMARK  195  A    between atoms: _445  and  _446
REMARK  196  A    between atoms: _449  and  _451
REMARK  197  A    between atoms: _451  and  _452
REMARK  198  A    between atoms: _451  and  _454
REMARK  199  A    between atoms: _454  and  _455
REMARK  200  A    between atoms: _458  and  _460
REMARK  201  A    between atoms: _460  and  _461
REMARK  202  A    between atoms: _460  and  _463
REMARK  203  A    between atoms: _463  and  _464
REMARK  204  A    between atoms: _464  and  _465
REMARK  205  A    between atoms: _465  and  _466
REMARK  206  A    between atoms: _466  and  _467
REMARK  207  A    between atoms: _471  and  _473
REMARK  208  A    between atoms: _473  and  _474
REMARK  209  A    between atoms: _473  and  _476
REMARK  210  A    between atoms: _476  and  _477
REMARK  211  A    between atoms: _480  and  _482
REMARK  212  A    between atoms: _482  and  _483
REMARK  213  A    between atoms: _486  and  _488
REMARK  214  A    between atoms: _488  and  _489
REMARK  215  A    between atoms: _488  and  _491
REMARK  216  A    between atoms: _491  and  _492
REMARK  217  A    between atoms: _495  and  _497
REMARK  218  A    between atoms: _497  and  _498
REMARK  219  A    between atoms: _497  and  _500
REMARK  220  A    between atoms: _500  and  _501
REMARK  221  A    between atoms: _507  and  _509
REMARK  222  A    between atoms: _509  and  _510
REMARK  223  A    between atoms: _509  and  _512
REMARK  224  A    between atoms: _512  and  _513
REMARK  225  A    between atoms: _516  and  _518
REMARK  226  A    between atoms: _518  and  _519
REMARK  227  A    between atoms: _518  and  _521
REMARK  228  A    between atoms: _521  and  _522
REMARK  229  A    between atoms: _522  and  _523
REMARK  230  A    between atoms: _523  and  _524
REMARK  231  A    between atoms: _533  and  _535
REMARK  232  A    between atoms: _535  and  _536
REMARK  233  A    between atoms: _535  and  _538
REMARK  234  A    between atoms: _538  and  _539
REMARK                            x       y       z     vdW  Elec       q    Type
REMARK                         _______ _______ _______ _____ _____    ______ ____
ROOT
ATOM      1  O   HOH     1       6.743  25.345  -0.813  0.00  0.00    +0.000 OA
ENDROOT
TORSDOF 0
REMARK  Name = ../refined-set-2016/2fvd/2fvd_pocket.pdb
REMARK  234 active torsions:
REMARK  status: ('A' for Active; 'I' for Inactive)
REMARK    1  A    between atoms: _1  and  _3
REMARK    2  A    between atoms: _3  and  _4
REMARK    3  A    between atoms: _3  and  _6
REMARK    4  A    between atoms: _6  and  _7
REMARK    5  A    between atoms: _7  and  _8
REMARK    6  A    between atoms: _11  and  _13
REMARK    7  A    between atoms: _13  and  _14
REMARK    8  A    between atoms: _13  and  _16
REMARK    9  A    between atoms: _16  and  _17
REMARK   10  A    between atoms: _17  and  _18
REMARK   11  A    between atoms: _18  and  _19
REMARK   12  A    between atoms: _19  and  _20
REMARK   13  A    between atoms: _24  and  _26
REMARK   14  A    between atoms: _26  and  _27
REMARK   15  A    between atoms: _26  and  _29
REMARK   16  A    between atoms: _29  and  _30
REMARK   17  A    between atoms: _33  and  _35
REMARK   18  A    between atoms: _35  and  _36
REMARK   19  A    between atoms: _38  and  _40
REMARK   20  A    between atoms: _40  and  _41
REMARK   21  A    between atoms: _40  and  _43
REMARK   22  A    between atoms: _43  and  _44
REMARK   23  A    between atoms: _44  and  _45
REMARK   24  A    between atoms: _48  and  _50
REMARK   25  A    between atoms: _50  and  _51
REMARK   26  A    between atoms: _53  and  _55
REMARK   27  A    between atoms: _55  and  _56
REMARK   28  A    between atoms: _55  and  _58
REMARK   29  A    between atoms: _58  and  _59
REMARK   30  A    between atoms: _62  and  _64
REMARK   31  A    between atoms: _64  and  _65
REMARK   32  A    between atoms: _64  and  _67
REMARK   33  A    between atoms: _67  and  _68
REMARK   34  A    between atoms: _73  and  _74
REMARK   35  A    between atoms: _76  and  _78
REMARK   36  A    between atoms: _78  and  _79
REMARK   37  A    between atoms: _81  and  _83
REMARK   38  A    between atoms: _83  and  _84
REMARK   39  A    between atoms: _83  and  _86
REMARK   40  A    between atoms: _89  and  _91
REMARK   41  A    between atoms: _91  and  _92
REMARK   42  A    between atoms: _91  and  _94
REMARK   43  A    between atoms: _97  and  _99
REMARK   44  A    between atoms: _99  and  _100
REMARK   45  A    between atoms: _99  and  _102
REMARK   46  A    between atoms: _102  and  _103
REMARK   47  A    between atoms: _108  and  _109
REMARK   48  A    between atoms: _111  and  _113
REMARK   49  A    between atoms: _113  and  _114
REMARK   50  A    between atoms: _113  and  _116
REMARK   51  A    between atoms: _116  and  _117
REMARK   52  A    between atoms: _117  and  _118
REMARK   53  A    between atoms: _118  and  _119
REMARK   54  A    between atoms: _119  and  _120
REMARK   55  A    between atoms: _124  and  _126
REMARK   56  A    between atoms: _126  and  _127
REMARK   57  A    between atoms: _126  and  _129
REMARK   58  A    between atoms: _132  and  _134
REMARK   59  A    between atoms: _134  and  _135
REMARK   60  A    between atoms: _134  and  _137
REMARK   61  A    between atoms: _140  and  _142
REMARK   62  A    between atoms: _142  and  _143
REMARK   63  A    between atoms: _146  and  _148
REMARK   64  A    between atoms: _148  and  _149
REMARK   65  A    between atoms: _148  and  _151
REMARK   66  A    between atoms: _151  and  _152
REMARK   67  A    between atoms: _155  and  _157
REMARK   68  A    between atoms: _157  and  _158
REMARK   69  A    between atoms: _157  and  _160
REMARK   70  A    between atoms: _160  and  _161
REMARK   71  A    between atoms: _161  and  _162
REMARK   72  A    between atoms: _162  and  _163
REMARK   73  A    between atoms: _163  and  _164
REMARK   74  A    between atoms: _168  and  _170
REMARK   75  A    between atoms: _170  and  _171
REMARK   76  A    between atoms: _170  and  _173
REMARK   77  A    between atoms: _173  and  _174
REMARK   78  A    between atoms: _174  and  _175
REMARK   79  A    between atoms: _175  and  _176
REMARK   80  A    between atoms: _176  and  _177
REMARK   81  A    between atoms: _181  and  _183
REMARK   82  A    between atoms: _183  and  _184
REMARK   83  A    between atoms: _183  and  _186
REMARK   84  A    between atoms: _186  and  _187
REMARK   85  A    between atoms: _190  and  _192
REMARK   86  A    between atoms: _192  and  _193
REMARK   87  A    between atoms: _192  and  _195
REMARK   88  A    between atoms: _198  and  _200
REMARK   89  A    between atoms: _200  and  _201
REMARK   90  A    between atoms: _200  and  _203
REMARK   91  A    between atoms: _203  and  _204
REMARK   92  A    between atoms: _204  and  _205
REMARK   93  A    between atoms: _205  and  _206
REMARK   94  A    between atoms: _206  and  _207
REMARK   95  A    between atoms: _211  and  _213
REMARK   96  A    between atoms: _213  and  _214
REMARK   97  A    between atoms: _213  and  _216
REMARK   98  A    between atoms: _216  and  _217
REMARK   99  A    between atoms: _220  and  _222
REMARK  100  A    between atoms: _222  and  _223
REMARK  101  A    between atoms: _222  and  _225
REMARK  102  A    between atoms: _225  and  _226
REMARK  103  A    between atoms: _229  and  _231
REMARK  104  A    between atoms: _231  and  _232
REMARK  105  A    between atoms: _231  and  _234
REMARK  106  A    between atoms: _234  and  _235
REMARK  107  A    between atoms: _238  and  _240
REMARK  108  A    between atoms: _240  and  _241
REMARK  109  A    between atoms: _240  and  _243
REMARK  110  A    between atoms: _246  and  _248
REMARK  111  A    between atoms: _248  and  _249
REMARK  112  A    between atoms: _248  and  _251
REMARK  113  A    between atoms: _251  and  _252
REMARK  114  A    between atoms: _258  and  _260
REMARK  115  A    between atoms: _260  and  _261
REMARK  116  A    between atoms: _260  and  _263
REMARK  117  A    between atoms: _263  and  _264
REMARK  118  A    between atoms: _264  and  _265
REMARK  119  A    between atoms: _268  and  _270
REMARK  120  A    between atoms: _270  and  _271
REMARK  121  A    between atoms: _270  and  _273
REMARK  122  A    between atoms: _273  and  _274
REMARK  123  A    between atoms: _280  and  _282
REMARK  124  A    between atoms: _282  and  _283
REMARK  125  A    between atoms: _282  and  _285
REMARK  126  A    between atoms: _285  and  _286
REMARK  127  A    between atoms: _289  and  _291
REMARK  128  A    between atoms: _291  and  _292
REMARK  129  A    between atoms: _291  and  _294
REMARK  130  A    between atoms: _294  and  _295
REMARK  131  A    between atoms: _300  and  _302
REMARK  132  A    between atoms: _302  and  _303
REMARK  133  A    between atoms: _302  and  _305
REMARK  134  A    between atoms: _305  and  _306
REMARK  135  A    between atoms: _306  and  _307
REMARK  136  A    between atoms: _312  and  _314
REMARK  137  A    between atoms: _314  and  _315
REMARK  138  A    between atoms: _314  and  _317
REMARK  139  A    between atoms: _317  and  _318
REMARK  140  A    between atoms: _321  and  _323
REMARK  141  A    between atoms: _323  and  _324
REMARK  142  A    between atoms: _323  and  _326
REMARK  143  A    between atoms: _326  and  _327
REMARK  144  A    between atoms: _330  and  _332
REMARK  145  A    between atoms: _332  and  _333
REMARK  146  A    between atoms: _332  and  _335
REMARK  147  A    between atoms: _335  and  _336
REMARK  148  A    between atoms: _336  and  _337
REMARK  149  A    between atoms: _337  and  _338
REMARK  150  A    between atoms: _338  and  _339
REMARK  151  A    between atoms: _343  and  _345
REMARK  152  A    between atoms: _345  and  _346
REMARK  153  A    between atoms: _345  and  _348
REMARK  154  A    between atoms: _348  and  _349
REMARK  155  A    between atoms: _349  and  _350
REMARK  156  A    between atoms: _350  and  _351
REMARK  157  A    between atoms: _351  and  _352
REMARK  158  A    between atoms: _356  and  _358
REMARK  159  A    between atoms: _358  and  _359
REMARK  160  A    between atoms: _358  and  _361
REMARK  161  A    between atoms: _361  and  _362
REMARK  162  A    between atoms: _368  and  _370
REMARK  163  A    between atoms: _370  and  _371
REMARK  164  A    between atoms: _370  and  _373
REMARK  165  A    between atoms: _373  and  _374
REMARK  166  A    between atoms: _374  and  _375
REMARK  167  A    between atoms: _377  and  _379
REMARK  168  A    between atoms: _379  and  _380
REMARK  169  A    between atoms: _379  and  _382
REMARK  170  A    between atoms: _382  and  _383
REMARK  171  A    between atoms: _388  and  _390
REMARK  172  A    between atoms: _390  and  _391
REMARK  173  A    between atoms: _390  and  _393
REMARK  174  A    between atoms: _393  and  _394
REMARK  175  A    between atoms: _394  and  _395
REMARK  176  A    between atoms: _395  and  _396
REMARK  177  A    between atoms: _396  and  _397
REMARK  178  A    between atoms: _402  and  _403
REMARK  179  A    between atoms: _408  and  _410
REMARK  180  A    between atoms: _410  and  _411
REMARK  181  A    between atoms: _410  and  _413
REMARK  182  A    between atoms: _413  and  _414
REMARK  183  A    between atoms: _414  and  _415
REMARK  184  A    between atoms: _420  and  _422
REMARK  185  A    between atoms: _422  and  _423
REMARK  186  A    between atoms: _422  and  _425
REMARK  187  A    between atoms: _425  and  _426
REMARK  188  A    between atoms: _431  and  _433
REMARK  189  A    between atoms: _433  and  _434
REMARK  190  A    between atoms: _433  and  _436
REMARK  191  A    between atoms: _436  and  _437
REMARK  192  A    between atoms: _440  and  _442
REMARK  193  A    between atoms: _442  and  _443
REMARK  194  A    between atoms: _442  and  _445
REMARK  195  A    between atoms: _445  and  _446
REMARK  196  A    between atoms: _449  and  _451
REMARK  197  A    between atoms: _451  and  _452
REMARK  198  A    between atoms: _451  and  _454
REMARK  199  A    between atoms: _454  and  _455
REMARK  200  A    between atoms: _458  and  _460
REMARK  201  A    between atoms: _460  and  _461
REMARK  202  A    between atoms: _460  and  _463
REMARK  203  A    between atoms: _463  and  _464
REMARK  204  A    between atoms: _464  and  _465
REMARK  205  A    between atoms: _465  and  _466
REMARK  206  A    between atoms: _466  and  _467
REMARK  207  A    between atoms: _471  and  _473
REMARK  208  A    between atoms: _473  and  _474
REMARK  209  A    between atoms: _473  and  _476
REMARK  210  A    between atoms: _476  and  _477
REMARK  211  A    between atoms: _480  and  _482
REMARK  212  A    between atoms: _482  and  _483
REMARK  213  A    between atoms: _486  and  _488
REMARK  214  A    between atoms: _488  and  _489
REMARK  215  A    between atoms: _488  and  _491
REMARK  216  A    between atoms: _491  and  _492
REMARK  217  A    between atoms: _495  and  _497
REMARK  218  A    between atoms: _497  and  _498
REMARK  219  A    between atoms: _497  and  _500
REMARK  220  A    between atoms: _500  and  _501
REMARK  221  A    between atoms: _507  and  _509
REMARK  222  A    between atoms: _509  and  _510
REMARK  223  A    between atoms: _509  and  _512
REMARK  224  A    between atoms: _512  and  _513
REMARK  225  A    between atoms: _516  and  _518
REMARK  226  A    between atoms: _518  and  _519
REMARK  227  A    between atoms: _518  and  _521
REMARK  228  A    between atoms: _521  and  _522
REMARK  229  A    between atoms: _522  and  _523
REMARK  230  A    between atoms: _523  and  _524
REMARK  231  A    between atoms: _533  and  _535
REMARK  232  A    between atoms: _535  and  _536
REMARK  233  A    between atoms: _535  and  _538
REMARK  234  A    between atoms: _538  and  _539
REMARK                            x       y       z     vdW  Elec       q    Type
REMARK                         _______ _______ _______ _____ _____    ______ ____
ROOT
ATOM      1  O   HOH     1      -3.667  26.531  17.620  0.00  0.00    +0.000 OA
ENDROOT
TORSDOF 0
REMARK  Name = ../refined-set-2016/2fvd/2fvd_pocket.pdb
REMARK  234 active torsions:
REMARK  status: ('A' for Active; 'I' for Inactive)
REMARK    1  A    between atoms: _1  and  _3
REMARK    2  A    between atoms: _3  and  _4
REMARK    3  A    between atoms: _3  and  _6
REMARK    4  A    between atoms: _6  and  _7
REMARK    5  A    between atoms: _7  and  _8
REMARK    6  A    between atoms: _11  and  _13
REMARK    7  A    between atoms: _13  and  _14
REMARK    8  A    between atoms: _13  and  _16
REMARK    9  A    between atoms: _16  and  _17
REMARK   10  A    between atoms: _17  and  _18
REMARK   11  A    between atoms: _18  and  _19
REMARK   12  A    between atoms: _19  and  _20
REMARK   13  A    between atoms: _24  and  _26
REMARK   14  A    between atoms: _26  and  _27
REMARK   15  A    between atoms: _26  and  _29
REMARK   16  A    between atoms: _29  and  _30
REMARK   17  A    between atoms: _33  and  _35
REMARK   18  A    between atoms: _35  and  _36
REMARK   19  A    between atoms: _38  and  _40
REMARK   20  A    between atoms: _40  and  _41
REMARK   21  A    between atoms: _40  and  _43
REMARK   22  A    between atoms: _43  and  _44
REMARK   23  A    between atoms: _44  and  _45
REMARK   24  A    between atoms: _48  and  _50
REMARK   25  A    between atoms: _50  and  _51
REMARK   26  A    between atoms: _53  and  _55
REMARK   27  A    between atoms: _55  and  _56
REMARK   28  A    between atoms: _55  and  _58
REMARK   29  A    between atoms: _58  and  _59
REMARK   30  A    between atoms: _62  and  _64
REMARK   31  A    between atoms: _64  and  _65
REMARK   32  A    between atoms: _64  and  _67
REMARK   33  A    between atoms: _67  and  _68
REMARK   34  A    between atoms: _73  and  _74
REMARK   35  A    between atoms: _76  and  _78
REMARK   36  A    between atoms: _78  and  _79
REMARK   37  A    between atoms: _81  and  _83
REMARK   38  A    between atoms: _83  and  _84
REMARK   39  A    between atoms: _83  and  _86
REMARK   40  A    between atoms: _89  and  _91
REMARK   41  A    between atoms: _91  and  _92
REMARK   42  A    between atoms: _91  and  _94
REMARK   43  A    between atoms: _97  and  _99
REMARK   44  A    between atoms: _99  and  _100
REMARK   45  A    between atoms: _99  and  _102
REMARK   46  A    between atoms: _102  and  _103
REMARK   47  A    between atoms: _108  and  _109
REMARK   48  A    between atoms: _111  and  _113
REMARK   49  A    between atoms: _113  and  _114
REMARK   50  A    between atoms: _113  and  _116
REMARK   51  A    between atoms: _116  and  _117
REMARK   52  A    between atoms: _117  and  _118
REMARK   53  A    between atoms: _118  and  _119
REMARK   54  A    between atoms: _119  and  _120
REMARK   55  A    between atoms: _124  and  _126
REMARK   56  A    between atoms: _126  and  _127
REMARK   57  A    between atoms: _126  and  _129
REMARK   58  A    between atoms: _132  and  _134
REMARK   59  A    between atoms: _134  and  _135
REMARK   60  A    between atoms: _134  and  _137
REMARK   61  A    between atoms: _140  and  _142
REMARK   62  A    between atoms: _142  and  _143
REMARK   63  A    between atoms: _146  and  _148
REMARK   64  A    between atoms: _148  and  _149
REMARK   65  A    between atoms: _148  and  _151
REMARK   66  A    between atoms: _151  and  _152
REMARK   67  A    between atoms: _155  and  _157
REMARK   68  A    between atoms: _157  and  _158
REMARK   69  A    between atoms: _157  and  _160
REMARK   70  A    between atoms: _160  and  _161
REMARK   71  A    between atoms: _161  and  _162
REMARK   72  A    between atoms: _162  and  _163
REMARK   73  A    between atoms: _163  and  _164
REMARK   74  A    between atoms: _168  and  _170
REMARK   75  A    between atoms: _170  and  _171
REMARK   76  A    between atoms: _170  and  _173
REMARK   77  A    between atoms: _173  and  _174
REMARK   78  A    between atoms: _174  and  _175
REMARK   79  A    between atoms: _175  and  _176
REMARK   80  A    between atoms: _176  and  _177
REMARK   81  A    between atoms: _181  and  _183
REMARK   82  A    between atoms: _183  and  _184
REMARK   83  A    between atoms: _183  and  _186
REMARK   84  A    between atoms: _186  and  _187
REMARK   85  A    between atoms: _190  and  _192
REMARK   86  A    between atoms: _192  and  _193
REMARK   87  A    between atoms: _192  and  _195
REMARK   88  A    between atoms: _198  and  _200
REMARK   89  A    between atoms: _200  and  _201
REMARK   90  A    between atoms: _200  and  _203
REMARK   91  A    between atoms: _203  and  _204
REMARK   92  A    between atoms: _204  and  _205
REMARK   93  A    between atoms: _205  and  _206
REMARK   94  A    between atoms: _206  and  _207
REMARK   95  A    between atoms: _211  and  _213
REMARK   96  A    between atoms: _213  and  _214
REMARK   97  A    between atoms: _213  and  _216
REMARK   98  A    between atoms: _216  and  _217
REMARK   99  A    between atoms: _220  and  _222
REMARK  100  A    between atoms: _222  and  _223
REMARK  101  A    between atoms: _222  and  _225
REMARK  102  A    between atoms: _225  and  _226
REMARK  103  A    between atoms: _229  and  _231
REMARK  104  A    between atoms: _231  and  _232
REMARK  105  A    between atoms: _231  and  _234
REMARK  106  A    between atoms: _234  and  _235
REMARK  107  A    between atoms: _238  and  _240
REMARK  108  A    between atoms: _240  and  _241
REMARK  109  A    between atoms: _240  and  _243
REMARK  110  A    between atoms: _246  and  _248
REMARK  111  A    between atoms: _248  and  _249
REMARK  112  A    between atoms: _248  and  _251
REMARK  113  A    between atoms: _251  and  _252
REMARK  114  A    between atoms: _258  and  _260
REMARK  115  A    between atoms: _260  and  _261
REMARK  116  A    between atoms: _260  and  _263
REMARK  117  A    between atoms: _263  and  _264
REMARK  118  A    between atoms: _264  and  _265
REMARK  119  A    between atoms: _268  and  _270
REMARK  120  A    between atoms: _270  and  _271
REMARK  121  A    between atoms: _270  and  _273
REMARK  122  A    between atoms: _273  and  _274
REMARK  123  A    between atoms: _280  and  _282
REMARK  124  A    between atoms: _282  and  _283
REMARK  125  A    between atoms: _282  and  _285
REMARK  126  A    between atoms: _285  and  _286
REMARK  127  A    between atoms: _289  and  _291
REMARK  128  A    between atoms: _291  and  _292
REMARK  129  A    between atoms: _291  and  _294
REMARK  130  A    between atoms: _294  and  _295
REMARK  131  A    between atoms: _300  and  _302
REMARK  132  A    between atoms: _302  and  _303
REMARK  133  A    between atoms: _302  and  _305
REMARK  134  A    between atoms: _305  and  _306
REMARK  135  A    between atoms: _306  and  _307
REMARK  136  A    between atoms: _312  and  _314
REMARK  137  A    between atoms: _314  and  _315
REMARK  138  A    between atoms: _314  and  _317
REMARK  139  A    between atoms: _317  and  _318
REMARK  140  A    between atoms: _321  and  _323
REMARK  141  A    between atoms: _323  and  _324
REMARK  142  A    between atoms: _323  and  _326
REMARK  143  A    between atoms: _326  and  _327
REMARK  144  A    between atoms: _330  and  _332
REMARK  145  A    between atoms: _332  and  _333
REMARK  146  A    between atoms: _332  and  _335
REMARK  147  A    between atoms: _335  and  _336
REMARK  148  A    between atoms: _336  and  _337
REMARK  149  A    between atoms: _337  and  _338
REMARK  150  A    between atoms: _338  and  _339
REMARK  151  A    between atoms: _343  and  _345
REMARK  152  A    between atoms: _345  and  _346
REMARK  153  A    between atoms: _345  and  _348
REMARK  154  A    between atoms: _348  and  _349
REMARK  155  A    between atoms: _349  and  _350
REMARK  156  A    between atoms: _350  and  _351
REMARK  157  A    between atoms: _351  and  _352
REMARK  158  A    between atoms: _356  and  _358
REMARK  159  A    between atoms: _358  and  _359
REMARK  160  A    between atoms: _358  and  _361
REMARK  161  A    between atoms: _361  and  _362
REMARK  162  A    between atoms: _368  and  _370
REMARK  163  A    between atoms: _370  and  _371
REMARK  164  A    between atoms: _370  and  _373
REMARK  165  A    between atoms: _373  and  _374
REMARK  166  A    between atoms: _374  and  _375
REMARK  167  A    between atoms: _377  and  _379
REMARK  168  A    between atoms: _379  and  _380
REMARK  169  A    between atoms: _379  and  _382
REMARK  170  A    between atoms: _382  and  _383
REMARK  171  A    between atoms: _388  and  _390
REMARK  172  A    between atoms: _390  and  _391
REMARK  173  A    between atoms: _390  and  _393
REMARK  174  A    between atoms: _393  and  _394
REMARK  175  A    between atoms: _394  and  _395
REMARK  176  A    between atoms: _395  and  _396
REMARK  177  A    between atoms: _396  and  _397
REMARK  178  A    between atoms: _402  and  _403
REMARK  179  A    between atoms: _408  and  _410
REMARK  180  A    between atoms: _410  and  _411
REMARK  181  A    between atoms: _410  and  _413
REMARK  182  A    between atoms: _413  and  _414
REMARK  183  A    between atoms: _414  and  _415
REMARK  184  A    between atoms: _420  and  _422
REMARK  185  A    between atoms: _422  and  _423
REMARK  186  A    between atoms: _422  and  _425
REMARK  187  A    between atoms: _425  and  _426
REMARK  188  A    between atoms: _431  and  _433
REMARK  189  A    between atoms: _433  and  _434
REMARK  190  A    between atoms: _433  and  _436
REMARK  191  A    between atoms: _436  and  _437
REMARK  192  A    between atoms: _440  and  _442
REMARK  193  A    between atoms: _442  and  _443
REMARK  194  A    between atoms: _442  and  _445
REMARK  195  A    between atoms: _445  and  _446
REMARK  196  A    between atoms: _449  and  _451
REMARK  197  A    between atoms: _451  and  _452
REMARK  198  A    between atoms: _451  and  _454
REMARK  199  A    between atoms: _454  and  _455
REMARK  200  A    between atoms: _458  and  _460
REMARK  201  A    between atoms: _460  and  _461
REMARK  202  A    between atoms: _460  and  _463
REMARK  203  A    between atoms: _463  and  _464
REMARK  204  A    between atoms: _464  and  _465
REMARK  205  A    between atoms: _465  and  _466
REMARK  206  A    between atoms: _466  and  _467
REMARK  207  A    between atoms: _471  and  _473
REMARK  208  A    between atoms: _473  and  _474
REMARK  209  A    between atoms: _473  and  _476
REMARK  210  A    between atoms: _476  and  _477
REMARK  211  A    between atoms: _480  and  _482
REMARK  212  A    between atoms: _482  and  _483
REMARK  213  A    between atoms: _486  and  _488
REMARK  214  A    between atoms: _488  and  _489
REMARK  215  A    between atoms: _488  and  _491
REMARK  216  A    between atoms: _491  and  _492
REMARK  217  A    between atoms: _495  and  _497
REMARK  218  A    between atoms: _497  and  _498
REMARK  219  A    between atoms: _497  and  _500
REMARK  220  A    between atoms: _500  and  _501
REMARK  221  A    between atoms: _507  and  _509
REMARK  222  A    between atoms: _509  and  _510
REMARK  223  A    between atoms: _509  and  _512
REMARK  224  A    between atoms: _512  and  _513
REMARK  225  A    between atoms: _516  and  _518
REMARK  226  A    between atoms: _518  and  _519
REMARK  227  A    between atoms: _518  and  _521
REMARK  228  A    between atoms: _521  and  _522
REMARK  229  A    between atoms: _522  and  _523
REMARK  230  A    between atoms: _523  and  _524
REMARK  231  A    between atoms: _533  and  _535
REMARK  232  A    between atoms: _535  and  _536
REMARK  233  A    between atoms: _535  and  _538
REMARK  234  A    between atoms: _538  and  _539
REMARK                            x       y       z     vdW  Elec       q    Type
REMARK                         _______ _______ _______ _____ _____    ______ ____
ROOT
ATOM      1  O   HOH     1      -7.063  32.745  14.213  0.00  0.00    +0.000 OA
ENDROOT
TORSDOF 0
REMARK  Name = ../refined-set-2016/2fvd/2fvd_pocket.pdb
REMARK  234 active torsions:
REMARK  status: ('A' for Active; 'I' for Inactive)
REMARK    1  A    between atoms: _1  and  _3
REMARK    2  A    between atoms: _3  and  _4
REMARK    3  A    between atoms: _3  and  _6
REMARK    4  A    between atoms: _6  and  _7
REMARK    5  A    between atoms: _7  and  _8
REMARK    6  A    between atoms: _11  and  _13
REMARK    7  A    between atoms: _13  and  _14
REMARK    8  A    between atoms: _13  and  _16
REMARK    9  A    between atoms: _16  and  _17
REMARK   10  A    between atoms: _17  and  _18
REMARK   11  A    between atoms: _18  and  _19
REMARK   12  A    between atoms: _19  and  _20
REMARK   13  A    between atoms: _24  and  _26
REMARK   14  A    between atoms: _26  and  _27
REMARK   15  A    between atoms: _26  and  _29
REMARK   16  A    between atoms: _29  and  _30
REMARK   17  A    between atoms: _33  and  _35
REMARK   18  A    between atoms: _35  and  _36
REMARK   19  A    between atoms: _38  and  _40
REMARK   20  A    between atoms: _40  and  _41
REMARK   21  A    between atoms: _40  and  _43
REMARK   22  A    between atoms: _43  and  _44
REMARK   23  A    between atoms: _44  and  _45
REMARK   24  A    between atoms: _48  and  _50
REMARK   25  A    between atoms: _50  and  _51
REMARK   26  A    between atoms: _53  and  _55
REMARK   27  A    between atoms: _55  and  _56
REMARK   28  A    between atoms: _55  and  _58
REMARK   29  A    between atoms: _58  and  _59
REMARK   30  A    between atoms: _62  and  _64
REMARK   31  A    between atoms: _64  and  _65
REMARK   32  A    between atoms: _64  and  _67
REMARK   33  A    between atoms: _67  and  _68
REMARK   34  A    between atoms: _73  and  _74
REMARK   35  A    between atoms: _76  and  _78
REMARK   36  A    between atoms: _78  and  _79
REMARK   37  A    between atoms: _81  and  _83
REMARK   38  A    between atoms: _83  and  _84
REMARK   39  A    between atoms: _83  and  _86
REMARK   40  A    between atoms: _89  and  _91
REMARK   41  A    between atoms: _91  and  _92
REMARK   42  A    between atoms: _91  and  _94
REMARK   43  A    between atoms: _97  and  _99
REMARK   44  A    between atoms: _99  and  _100
REMARK   45  A    between atoms: _99  and  _102
REMARK   46  A    between atoms: _102  and  _103
REMARK   47  A    between atoms: _108  and  _109
REMARK   48  A    between atoms: _111  and  _113
REMARK   49  A    between atoms: _113  and  _114
REMARK   50  A    between atoms: _113  and  _116
REMARK   51  A    between atoms: _116  and  _117
REMARK   52  A    between atoms: _117  and  _118
REMARK   53  A    between atoms: _118  and  _119
REMARK   54  A    between atoms: _119  and  _120
REMARK   55  A    between atoms: _124  and  _126
REMARK   56  A    between atoms: _126  and  _127
REMARK   57  A    between atoms: _126  and  _129
REMARK   58  A    between atoms: _132  and  _134
REMARK   59  A    between atoms: _134  and  _135
REMARK   60  A    between atoms: _134  and  _137
REMARK   61  A    between atoms: _140  and  _142
REMARK   62  A    between atoms: _142  and  _143
REMARK   63  A    between atoms: _146  and  _148
REMARK   64  A    between atoms: _148  and  _149
REMARK   65  A    between atoms: _148  and  _151
REMARK   66  A    between atoms: _151  and  _152
REMARK   67  A    between atoms: _155  and  _157
REMARK   68  A    between atoms: _157  and  _158
REMARK   69  A    between atoms: _157  and  _160
REMARK   70  A    between atoms: _160  and  _161
REMARK   71  A    between atoms: _161  and  _162
REMARK   72  A    between atoms: _162  and  _163
REMARK   73  A    between atoms: _163  and  _164
REMARK   74  A    between atoms: _168  and  _170
REMARK   75  A    between atoms: _170  and  _171
REMARK   76  A    between atoms: _170  and  _173
REMARK   77  A    between atoms: _173  and  _174
REMARK   78  A    between atoms: _174  and  _175
REMARK   79  A    between atoms: _175  and  _176
REMARK   80  A    between atoms: _176  and  _177
REMARK   81  A    between atoms: _181  and  _183
REMARK   82  A    between atoms: _183  and  _184
REMARK   83  A    between atoms: _183  and  _186
REMARK   84  A    between atoms: _186  and  _187
REMARK   85  A    between atoms: _190  and  _192
REMARK   86  A    between atoms: _192  and  _193
REMARK   87  A    between atoms: _192  and  _195
REMARK   88  A    between atoms: _198  and  _200
REMARK   89  A    between atoms: _200  and  _201
REMARK   90  A    between atoms: _200  and  _203
REMARK   91  A    between atoms: _203  and  _204
REMARK   92  A    between atoms: _204  and  _205
REMARK   93  A    between atoms: _205  and  _206
REMARK   94  A    between atoms: _206  and  _207
REMARK   95  A    between atoms: _211  and  _213
REMARK   96  A    between atoms: _213  and  _214
REMARK   97  A    between atoms: _213  and  _216
REMARK   98  A    between atoms: _216  and  _217
REMARK   99  A    between atoms: _220  and  _222
REMARK  100  A    between atoms: _222  and  _223
REMARK  101  A    between atoms: _222  and  _225
REMARK  102  A    between atoms: _225  and  _226
REMARK  103  A    between atoms: _229  and  _231
REMARK  104  A    between atoms: _231  and  _232
REMARK  105  A    between atoms: _231  and  _234
REMARK  106  A    between atoms: _234  and  _235
REMARK  107  A    between atoms: _238  and  _240
REMARK  108  A    between atoms: _240  and  _241
REMARK  109  A    between atoms: _240  and  _243
REMARK  110  A    between atoms: _246  and  _248
REMARK  111  A    between atoms: _248  and  _249
REMARK  112  A    between atoms: _248  and  _251
REMARK  113  A    between atoms: _251  and  _252
REMARK  114  A    between atoms: _258  and  _260
REMARK  115  A    between atoms: _260  and  _261
REMARK  116  A    between atoms: _260  and  _263
REMARK  117  A    between atoms: _263  and  _264
REMARK  118  A    between atoms: _264  and  _265
REMARK  119  A    between atoms: _268  and  _270
REMARK  120  A    between atoms: _270  and  _271
REMARK  121  A    between atoms: _270  and  _273
REMARK  122  A    between atoms: _273  and  _274
REMARK  123  A    between atoms: _280  and  _282
REMARK  124  A    between atoms: _282  and  _283
REMARK  125  A    between atoms: _282  and  _285
REMARK  126  A    between atoms: _285  and  _286
REMARK  127  A    between atoms: _289  and  _291
REMARK  128  A    between atoms: _291  and  _292
REMARK  129  A    between atoms: _291  and  _294
REMARK  130  A    between atoms: _294  and  _295
REMARK  131  A    between atoms: _300  and  _302
REMARK  132  A    between atoms: _302  and  _303
REMARK  133  A    between atoms: _302  and  _305
REMARK  134  A    between atoms: _305  and  _306
REMARK  135  A    between atoms: _306  and  _307
REMARK  136  A    between atoms: _312  and  _314
REMARK  137  A    between atoms: _314  and  _315
REMARK  138  A    between atoms: _314  and  _317
REMARK  139  A    between atoms: _317  and  _318
REMARK  140  A    between atoms: _321  and  _323
REMARK  141  A    between atoms: _323  and  _324
REMARK  142  A    between atoms: _323  and  _326
REMARK  143  A    between atoms: _326  and  _327
REMARK  144  A    between atoms: _330  and  _332
REMARK  145  A    between atoms: _332  and  _333
REMARK  146  A    between atoms: _332  and  _335
REMARK  147  A    between atoms: _335  and  _336
REMARK  148  A    between atoms: _336  and  _337
REMARK  149  A    between atoms: _337  and  _338
REMARK  150  A    between atoms: _338  and  _339
REMARK  151  A    between atoms: _343  and  _345
REMARK  152  A    between atoms: _345  and  _346
REMARK  153  A    between atoms: _345  and  _348
REMARK  154  A    between atoms: _348  and  _349
REMARK  155  A    between atoms: _349  and  _350
REMARK  156  A    between atoms: _350  and  _351
REMARK  157  A    between atoms: _351  and  _352
REMARK  158  A    between atoms: _356  and  _358
REMARK  159  A    between atoms: _358  and  _359
REMARK  160  A    between atoms: _358  and  _361
REMARK  161  A    between atoms: _361  and  _362
REMARK  162  A    between atoms: _368  and  _370
REMARK  163  A    between atoms: _370  and  _371
REMARK  164  A    between atoms: _370  and  _373
REMARK  165  A    between atoms: _373  and  _374
REMARK  166  A    between atoms: _374  and  _375
REMARK  167  A    between atoms: _377  and  _379
REMARK  168  A    between atoms: _379  and  _380
REMARK  169  A    between atoms: _379  and  _382
REMARK  170  A    between atoms: _382  and  _383
REMARK  171  A    between atoms: _388  and  _390
REMARK  172  A    between atoms: _390  and  _391
REMARK  173  A    between atoms: _390  and  _393
REMARK  174  A    between atoms: _393  and  _394
REMARK  175  A    between atoms: _394  and  _395
REMARK  176  A    between atoms: _395  and  _396
REMARK  177  A    between atoms: _396  and  _397
REMARK  178  A    between atoms: _402  and  _403
REMARK  179  A    between atoms: _408  and  _410
REMARK  180  A    between atoms: _410  and  _411
REMARK  181  A    between atoms: _410  and  _413
REMARK  182  A    between atoms: _413  and  _414
REMARK  183  A    between atoms: _414  and  _415
REMARK  184  A    between atoms: _420  and  _422
REMARK  185  A    between atoms: _422  and  _423
REMARK  186  A    between atoms: _422  and  _425
REMARK  187  A    between atoms: _425  and  _426
REMARK  188  A    between atoms: _431  and  _433
REMARK  189  A    between atoms: _433  and  _434
REMARK  190  A    between atoms: _433  and  _436
REMARK  191  A    between atoms: _436  and  _437
REMARK  192  A    between atoms: _440  and  _442
REMARK  193  A    between atoms: _442  and  _443
REMARK  194  A    between atoms: _442  and  _445
REMARK  195  A    between atoms: _445  and  _446
REMARK  196  A    between atoms: _449  and  _451
REMARK  197  A    between atoms: _451  and  _452
REMARK  198  A    between atoms: _451  and  _454
REMARK  199  A    between atoms: _454  and  _455
REMARK  200  A    between atoms: _458  and  _460
REMARK  201  A    between atoms: _460  and  _461
REMARK  202  A    between atoms: _460  and  _463
REMARK  203  A    between atoms: _463  and  _464
REMARK  204  A    between atoms: _464  and  _465
REMARK  205  A    between atoms: _465  and  _466
REMARK  206  A    between atoms: _466  and  _467
REMARK  207  A    between atoms: _471  and  _473
REMARK  208  A    between atoms: _473  and  _474
REMARK  209  A    between atoms: _473  and  _476
REMARK  210  A    between atoms: _476  and  _477
REMARK  211  A    between atoms: _480  and  _482
REMARK  212  A    between atoms: _482  and  _483
REMARK  213  A    between atoms: _486  and  _488
REMARK  214  A    between atoms: _488  and  _489
REMARK  215  A    between atoms: _488  and  _491
REMARK  216  A    between atoms: _491  and  _492
REMARK  217  A    between atoms: _495  and  _497
REMARK  218  A    between atoms: _497  and  _498
REMARK  219  A    between atoms: _497  and  _500
REMARK  220  A    between atoms: _500  and  _501
REMARK  221  A    between atoms: _507  and  _509
REMARK  222  A    between atoms: _509  and  _510
REMARK  223  A    between atoms: _509  and  _512
REMARK  224  A    between atoms: _512  and  _513
REMARK  225  A    between atoms: _516  and  _518
REMARK  226  A    between atoms: _518  and  _519
REMARK  227  A    between atoms: _518  and  _521
REMARK  228  A    between atoms: _521  and  _522
REMARK  229  A    between atoms: _522  and  _523
REMARK  230  A    between atoms: _523  and  _524
REMARK  231  A    between atoms: _533  and  _535
REMARK  232  A    between atoms: _535  and  _536
REMARK  233  A    between atoms: _535  and  _538
REMARK  234  A    between atoms: _538  and  _539
REMARK                            x       y       z     vdW  Elec       q    Type
REMARK                         _______ _______ _______ _____ _____    ______ ____
ROOT
ATOM      1  O   HOH     1      -9.079  31.077  13.605  0.00  0.00    +0.000 OA
ENDROOT
TORSDOF 0
REMARK  Name = ../refined-set-2016/2fvd/2fvd_pocket.pdb
REMARK  234 active torsions:
REMARK  status: ('A' for Active; 'I' for Inactive)
REMARK    1  A    between atoms: _1  and  _3
REMARK    2  A    between atoms: _3  and  _4
REMARK    3  A    between atoms: _3  and  _6
REMARK    4  A    between atoms: _6  and  _7
REMARK    5  A    between atoms: _7  and  _8
REMARK    6  A    between atoms: _11  and  _13
REMARK    7  A    between atoms: _13  and  _14
REMARK    8  A    between atoms: _13  and  _16
REMARK    9  A    between atoms: _16  and  _17
REMARK   10  A    between atoms: _17  and  _18
REMARK   11  A    between atoms: _18  and  _19
REMARK   12  A    between atoms: _19  and  _20
REMARK   13  A    between atoms: _24  and  _26
REMARK   14  A    between atoms: _26  and  _27
REMARK   15  A    between atoms: _26  and  _29
REMARK   16  A    between atoms: _29  and  _30
REMARK   17  A    between atoms: _33  and  _35
REMARK   18  A    between atoms: _35  and  _36
REMARK   19  A    between atoms: _38  and  _40
REMARK   20  A    between atoms: _40  and  _41
REMARK   21  A    between atoms: _40  and  _43
REMARK   22  A    between atoms: _43  and  _44
REMARK   23  A    between atoms: _44  and  _45
REMARK   24  A    between atoms: _48  and  _50
REMARK   25  A    between atoms: _50  and  _51
REMARK   26  A    between atoms: _53  and  _55
REMARK   27  A    between atoms: _55  and  _56
REMARK   28  A    between atoms: _55  and  _58
REMARK   29  A    between atoms: _58  and  _59
REMARK   30  A    between atoms: _62  and  _64
REMARK   31  A    between atoms: _64  and  _65
REMARK   32  A    between atoms: _64  and  _67
REMARK   33  A    between atoms: _67  and  _68
REMARK   34  A    between atoms: _73  and  _74
REMARK   35  A    between atoms: _76  and  _78
REMARK   36  A    between atoms: _78  and  _79
REMARK   37  A    between atoms: _81  and  _83
REMARK   38  A    between atoms: _83  and  _84
REMARK   39  A    between atoms: _83  and  _86
REMARK   40  A    between atoms: _89  and  _91
REMARK   41  A    between atoms: _91  and  _92
REMARK   42  A    between atoms: _91  and  _94
REMARK   43  A    between atoms: _97  and  _99
REMARK   44  A    between atoms: _99  and  _100
REMARK   45  A    between atoms: _99  and  _102
REMARK   46  A    between atoms: _102  and  _103
REMARK   47  A    between atoms: _108  and  _109
REMARK   48  A    between atoms: _111  and  _113
REMARK   49  A    between atoms: _113  and  _114
REMARK   50  A    between atoms: _113  and  _116
REMARK   51  A    between atoms: _116  and  _117
REMARK   52  A    between atoms: _117  and  _118
REMARK   53  A    between atoms: _118  and  _119
REMARK   54  A    between atoms: _119  and  _120
REMARK   55  A    between atoms: _124  and  _126
REMARK   56  A    between atoms: _126  and  _127
REMARK   57  A    between atoms: _126  and  _129
REMARK   58  A    between atoms: _132  and  _134
REMARK   59  A    between atoms: _134  and  _135
REMARK   60  A    between atoms: _134  and  _137
REMARK   61  A    between atoms: _140  and  _142
REMARK   62  A    between atoms: _142  and  _143
REMARK   63  A    between atoms: _146  and  _148
REMARK   64  A    between atoms: _148  and  _149
REMARK   65  A    between atoms: _148  and  _151
REMARK   66  A    between atoms: _151  and  _152
REMARK   67  A    between atoms: _155  and  _157
REMARK   68  A    between atoms: _157  and  _158
REMARK   69  A    between atoms: _157  and  _160
REMARK   70  A    between atoms: _160  and  _161
REMARK   71  A    between atoms: _161  and  _162
REMARK   72  A    between atoms: _162  and  _163
REMARK   73  A    between atoms: _163  and  _164
REMARK   74  A    between atoms: _168  and  _170
REMARK   75  A    between atoms: _170  and  _171
REMARK   76  A    between atoms: _170  and  _173
REMARK   77  A    between atoms: _173  and  _174
REMARK   78  A    between atoms: _174  and  _175
REMARK   79  A    between atoms: _175  and  _176
REMARK   80  A    between atoms: _176  and  _177
REMARK   81  A    between atoms: _181  and  _183
REMARK   82  A    between atoms: _183  and  _184
REMARK   83  A    between atoms: _183  and  _186
REMARK   84  A    between atoms: _186  and  _187
REMARK   85  A    between atoms: _190  and  _192
REMARK   86  A    between atoms: _192  and  _193
REMARK   87  A    between atoms: _192  and  _195
REMARK   88  A    between atoms: _198  and  _200
REMARK   89  A    between atoms: _200  and  _201
REMARK   90  A    between atoms: _200  and  _203
REMARK   91  A    between atoms: _203  and  _204
REMARK   92  A    between atoms: _204  and  _205
REMARK   93  A    between atoms: _205  and  _206
REMARK   94  A    between atoms: _206  and  _207
REMARK   95  A    between atoms: _211  and  _213
REMARK   96  A    between atoms: _213  and  _214
REMARK   97  A    between atoms: _213  and  _216
REMARK   98  A    between atoms: _216  and  _217
REMARK   99  A    between atoms: _220  and  _222
REMARK  100  A    between atoms: _222  and  _223
REMARK  101  A    between atoms: _222  and  _225
REMARK  102  A    between atoms: _225  and  _226
REMARK  103  A    between atoms: _229  and  _231
REMARK  104  A    between atoms: _231  and  _232
REMARK  105  A    between atoms: _231  and  _234
REMARK  106  A    between atoms: _234  and  _235
REMARK  107  A    between atoms: _238  and  _240
REMARK  108  A    between atoms: _240  and  _241
REMARK  109  A    between atoms: _240  and  _243
REMARK  110  A    between atoms: _246  and  _248
REMARK  111  A    between atoms: _248  and  _249
REMARK  112  A    between atoms: _248  and  _251
REMARK  113  A    between atoms: _251  and  _252
REMARK  114  A    between atoms: _258  and  _260
REMARK  115  A    between atoms: _260  and  _261
REMARK  116  A    between atoms: _260  and  _263
REMARK  117  A    between atoms: _263  and  _264
REMARK  118  A    between atoms: _264  and  _265
REMARK  119  A    between atoms: _268  and  _270
REMARK  120  A    between atoms: _270  and  _271
REMARK  121  A    between atoms: _270  and  _273
REMARK  122  A    between atoms: _273  and  _274
REMARK  123  A    between atoms: _280  and  _282
REMARK  124  A    between atoms: _282  and  _283
REMARK  125  A    between atoms: _282  and  _285
REMARK  126  A    between atoms: _285  and  _286
REMARK  127  A    between atoms: _289  and  _291
REMARK  128  A    between atoms: _291  and  _292
REMARK  129  A    between atoms: _291  and  _294
REMARK  130  A    between atoms: _294  and  _295
REMARK  131  A    between atoms: _300  and  _302
REMARK  132  A    between atoms: _302  and  _303
REMARK  133  A    between atoms: _302  and  _305
REMARK  134  A    between atoms: _305  and  _306
REMARK  135  A    between atoms: _306  and  _307
REMARK  136  A    between atoms: _312  and  _314
REMARK  137  A    between atoms: _314  and  _315
REMARK  138  A    between atoms: _314  and  _317
REMARK  139  A    between atoms: _317  and  _318
REMARK  140  A    between atoms: _321  and  _323
REMARK  141  A    between atoms: _323  and  _324
REMARK  142  A    between atoms: _323  and  _326
REMARK  143  A    between atoms: _326  and  _327
REMARK  144  A    between atoms: _330  and  _332
REMARK  145  A    between atoms: _332  and  _333
REMARK  146  A    between atoms: _332  and  _335
REMARK  147  A    between atoms: _335  and  _336
REMARK  148  A    between atoms: _336  and  _337
REMARK  149  A    between atoms: _337  and  _338
REMARK  150  A    between atoms: _338  and  _339
REMARK  151  A    between atoms: _343  and  _345
REMARK  152  A    between atoms: _345  and  _346
REMARK  153  A    between atoms: _345  and  _348
REMARK  154  A    between atoms: _348  and  _349
REMARK  155  A    between atoms: _349  and  _350
REMARK  156  A    between atoms: _350  and  _351
REMARK  157  A    between atoms: _351  and  _352
REMARK  158  A    between atoms: _356  and  _358
REMARK  159  A    between atoms: _358  and  _359
REMARK  160  A    between atoms: _358  and  _361
REMARK  161  A    between atoms: _361  and  _362
REMARK  162  A    between atoms: _368  and  _370
REMARK  163  A    between atoms: _370  and  _371
REMARK  164  A    between atoms: _370  and  _373
REMARK  165  A    between atoms: _373  and  _374
REMARK  166  A    between atoms: _374  and  _375
REMARK  167  A    between atoms: _377  and  _379
REMARK  168  A    between atoms: _379  and  _380
REMARK  169  A    between atoms: _379  and  _382
REMARK  170  A    between atoms: _382  and  _383
REMARK  171  A    between atoms: _388  and  _390
REMARK  172  A    between atoms: _390  and  _391
REMARK  173  A    between atoms: _390  and  _393
REMARK  174  A    between atoms: _393  and  _394
REMARK  175  A    between atoms: _394  and  _395
REMARK  176  A    between atoms: _395  and  _396
REMARK  177  A    between atoms: _396  and  _397
REMARK  178  A    between atoms: _402  and  _403
REMARK  179  A    between atoms: _408  and  _410
REMARK  180  A    between atoms: _410  and  _411
REMARK  181  A    between atoms: _410  and  _413
REMARK  182  A    between atoms: _413  and  _414
REMARK  183  A    between atoms: _414  and  _415
REMARK  184  A    between atoms: _420  and  _422
REMARK  185  A    between atoms: _422  and  _423
REMARK  186  A    between atoms: _422  and  _425
REMARK  187  A    between atoms: _425  and  _426
REMARK  188  A    between atoms: _431  and  _433
REMARK  189  A    between atoms: _433  and  _434
REMARK  190  A    between atoms: _433  and  _436
REMARK  191  A    between atoms: _436  and  _437
REMARK  192  A    between atoms: _440  and  _442
REMARK  193  A    between atoms: _442  and  _443
REMARK  194  A    between atoms: _442  and  _445
REMARK  195  A    between atoms: _445  and  _446
REMARK  196  A    between atoms: _449  and  _451
REMARK  197  A    between atoms: _451  and  _452
REMARK  198  A    between atoms: _451  and  _454
REMARK  199  A    between atoms: _454  and  _455
REMARK  200  A    between atoms: _458  and  _460
REMARK  201  A    between atoms: _460  and  _461
REMARK  202  A    between atoms: _460  and  _463
REMARK  203  A    between atoms: _463  and  _464
REMARK  204  A    between atoms: _464  and  _465
REMARK  205  A    between atoms: _465  and  _466
REMARK  206  A    between atoms: _466  and  _467
REMARK  207  A    between atoms: _471  and  _473
REMARK  208  A    between atoms: _473  and  _474
REMARK  209  A    between atoms: _473  and  _476
REMARK  210  A    between atoms: _476  and  _477
REMARK  211  A    between atoms: _480  and  _482
REMARK  212  A    between atoms: _482  and  _483
REMARK  213  A    between atoms: _486  and  _488
REMARK  214  A    between atoms: _488  and  _489
REMARK  215  A    between atoms: _488  and  _491
REMARK  216  A    between atoms: _491  and  _492
REMARK  217  A    between atoms: _495  and  _497
REMARK  218  A    between atoms: _497  and  _498
REMARK  219  A    between atoms: _497  and  _500
REMARK  220  A    between atoms: _500  and  _501
REMARK  221  A    between atoms: _507  and  _509
REMARK  222  A    between atoms: _509  and  _510
REMARK  223  A    between atoms: _509  and  _512
REMARK  224  A    between atoms: _512  and  _513
REMARK  225  A    between atoms: _516  and  _518
REMARK  226  A    between atoms: _518  and  _519
REMARK  227  A    between atoms: _518  and  _521
REMARK  228  A    between atoms: _521  and  _522
REMARK  229  A    between atoms: _522  and  _523
REMARK  230  A    between atoms: _523  and  _524
REMARK  231  A    between atoms: _533  and  _535
REMARK  232  A    between atoms: _535  and  _536
REMARK  233  A    between atoms: _535  and  _538
REMARK  234  A    between atoms: _538  and  _539
REMARK                            x       y       z     vdW  Elec       q    Type
REMARK                         _______ _______ _______ _____ _____    ______ ____
ROOT
ATOM      1  O   HOH     1       3.085  37.969   3.144  0.00  0.00    +0.000 OA
ENDROOT
TORSDOF 0
REMARK  Name = ../refined-set-2016/2fvd/2fvd_pocket.pdb
REMARK  234 active torsions:
REMARK  status: ('A' for Active; 'I' for Inactive)
REMARK    1  A    between atoms: _1  and  _3
REMARK    2  A    between atoms: _3  and  _4
REMARK    3  A    between atoms: _3  and  _6
REMARK    4  A    between atoms: _6  and  _7
REMARK    5  A    between atoms: _7  and  _8
REMARK    6  A    between atoms: _11  and  _13
REMARK    7  A    between atoms: _13  and  _14
REMARK    8  A    between atoms: _13  and  _16
REMARK    9  A    between atoms: _16  and  _17
REMARK   10  A    between atoms: _17  and  _18
REMARK   11  A    between atoms: _18  and  _19
REMARK   12  A    between atoms: _19  and  _20
REMARK   13  A    between atoms: _24  and  _26
REMARK   14  A    between atoms: _26  and  _27
REMARK   15  A    between atoms: _26  and  _29
REMARK   16  A    between atoms: _29  and  _30
REMARK   17  A    between atoms: _33  and  _35
REMARK   18  A    between atoms: _35  and  _36
REMARK   19  A    between atoms: _38  and  _40
REMARK   20  A    between atoms: _40  and  _41
REMARK   21  A    between atoms: _40  and  _43
REMARK   22  A    between atoms: _43  and  _44
REMARK   23  A    between atoms: _44  and  _45
REMARK   24  A    between atoms: _48  and  _50
REMARK   25  A    between atoms: _50  and  _51
REMARK   26  A    between atoms: _53  and  _55
REMARK   27  A    between atoms: _55  and  _56
REMARK   28  A    between atoms: _55  and  _58
REMARK   29  A    between atoms: _58  and  _59
REMARK   30  A    between atoms: _62  and  _64
REMARK   31  A    between atoms: _64  and  _65
REMARK   32  A    between atoms: _64  and  _67
REMARK   33  A    between atoms: _67  and  _68
REMARK   34  A    between atoms: _73  and  _74
REMARK   35  A    between atoms: _76  and  _78
REMARK   36  A    between atoms: _78  and  _79
REMARK   37  A    between atoms: _81  and  _83
REMARK   38  A    between atoms: _83  and  _84
REMARK   39  A    between atoms: _83  and  _86
REMARK   40  A    between atoms: _89  and  _91
REMARK   41  A    between atoms: _91  and  _92
REMARK   42  A    between atoms: _91  and  _94
REMARK   43  A    between atoms: _97  and  _99
REMARK   44  A    between atoms: _99  and  _100
REMARK   45  A    between atoms: _99  and  _102
REMARK   46  A    between atoms: _102  and  _103
REMARK   47  A    between atoms: _108  and  _109
REMARK   48  A    between atoms: _111  and  _113
REMARK   49  A    between atoms: _113  and  _114
REMARK   50  A    between atoms: _113  and  _116
REMARK   51  A    between atoms: _116  and  _117
REMARK   52  A    between atoms: _117  and  _118
REMARK   53  A    between atoms: _118  and  _119
REMARK   54  A    between atoms: _119  and  _120
REMARK   55  A    between atoms: _124  and  _126
REMARK   56  A    between atoms: _126  and  _127
REMARK   57  A    between atoms: _126  and  _129
REMARK   58  A    between atoms: _132  and  _134
REMARK   59  A    between atoms: _134  and  _135
REMARK   60  A    between atoms: _134  and  _137
REMARK   61  A    between atoms: _140  and  _142
REMARK   62  A    between atoms: _142  and  _143
REMARK   63  A    between atoms: _146  and  _148
REMARK   64  A    between atoms: _148  and  _149
REMARK   65  A    between atoms: _148  and  _151
REMARK   66  A    between atoms: _151  and  _152
REMARK   67  A    between atoms: _155  and  _157
REMARK   68  A    between atoms: _157  and  _158
REMARK   69  A    between atoms: _157  and  _160
REMARK   70  A    between atoms: _160  and  _161
REMARK   71  A    between atoms: _161  and  _162
REMARK   72  A    between atoms: _162  and  _163
REMARK   73  A    between atoms: _163  and  _164
REMARK   74  A    between atoms: _168  and  _170
REMARK   75  A    between atoms: _170  and  _171
REMARK   76  A    between atoms: _170  and  _173
REMARK   77  A    between atoms: _173  and  _174
REMARK   78  A    between atoms: _174  and  _175
REMARK   79  A    between atoms: _175  and  _176
REMARK   80  A    between atoms: _176  and  _177
REMARK   81  A    between atoms: _181  and  _183
REMARK   82  A    between atoms: _183  and  _184
REMARK   83  A    between atoms: _183  and  _186
REMARK   84  A    between atoms: _186  and  _187
REMARK   85  A    between atoms: _190  and  _192
REMARK   86  A    between atoms: _192  and  _193
REMARK   87  A    between atoms: _192  and  _195
REMARK   88  A    between atoms: _198  and  _200
REMARK   89  A    between atoms: _200  and  _201
REMARK   90  A    between atoms: _200  and  _203
REMARK   91  A    between atoms: _203  and  _204
REMARK   92  A    between atoms: _204  and  _205
REMARK   93  A    between atoms: _205  and  _206
REMARK   94  A    between atoms: _206  and  _207
REMARK   95  A    between atoms: _211  and  _213
REMARK   96  A    between atoms: _213  and  _214
REMARK   97  A    between atoms: _213  and  _216
REMARK   98  A    between atoms: _216  and  _217
REMARK   99  A    between atoms: _220  and  _222
REMARK  100  A    between atoms: _222  and  _223
REMARK  101  A    between atoms: _222  and  _225
REMARK  102  A    between atoms: _225  and  _226
REMARK  103  A    between atoms: _229  and  _231
REMARK  104  A    between atoms: _231  and  _232
REMARK  105  A    between atoms: _231  and  _234
REMARK  106  A    between atoms: _234  and  _235
REMARK  107  A    between atoms: _238  and  _240
REMARK  108  A    between atoms: _240  and  _241
REMARK  109  A    between atoms: _240  and  _243
REMARK  110  A    between atoms: _246  and  _248
REMARK  111  A    between atoms: _248  and  _249
REMARK  112  A    between atoms: _248  and  _251
REMARK  113  A    between atoms: _251  and  _252
REMARK  114  A    between atoms: _258  and  _260
REMARK  115  A    between atoms: _260  and  _261
REMARK  116  A    between atoms: _260  and  _263
REMARK  117  A    between atoms: _263  and  _264
REMARK  118  A    between atoms: _264  and  _265
REMARK  119  A    between atoms: _268  and  _270
REMARK  120  A    between atoms: _270  and  _271
REMARK  121  A    between atoms: _270  and  _273
REMARK  122  A    between atoms: _273  and  _274
REMARK  123  A    between atoms: _280  and  _282
REMARK  124  A    between atoms: _282  and  _283
REMARK  125  A    between atoms: _282  and  _285
REMARK  126  A    between atoms: _285  and  _286
REMARK  127  A    between atoms: _289  and  _291
REMARK  128  A    between atoms: _291  and  _292
REMARK  129  A    between atoms: _291  and  _294
REMARK  130  A    between atoms: _294  and  _295
REMARK  131  A    between atoms: _300  and  _302
REMARK  132  A    between atoms: _302  and  _303
REMARK  133  A    between atoms: _302  and  _305
REMARK  134  A    between atoms: _305  and  _306
REMARK  135  A    between atoms: _306  and  _307
REMARK  136  A    between atoms: _312  and  _314
REMARK  137  A    between atoms: _314  and  _315
REMARK  138  A    between atoms: _314  and  _317
REMARK  139  A    between atoms: _317  and  _318
REMARK  140  A    between atoms: _321  and  _323
REMARK  141  A    between atoms: _323  and  _324
REMARK  142  A    between atoms: _323  and  _326
REMARK  143  A    between atoms: _326  and  _327
REMARK  144  A    between atoms: _330  and  _332
REMARK  145  A    between atoms: _332  and  _333
REMARK  146  A    between atoms: _332  and  _335
REMARK  147  A    between atoms: _335  and  _336
REMARK  148  A    between atoms: _336  and  _337
REMARK  149  A    between atoms: _337  and  _338
REMARK  150  A    between atoms: _338  and  _339
REMARK  151  A    between atoms: _343  and  _345
REMARK  152  A    between atoms: _345  and  _346
REMARK  153  A    between atoms: _345  and  _348
REMARK  154  A    between atoms: _348  and  _349
REMARK  155  A    between atoms: _349  and  _350
REMARK  156  A    between atoms: _350  and  _351
REMARK  157  A    between atoms: _351  and  _352
REMARK  158  A    between atoms: _356  and  _358
REMARK  159  A    between atoms: _358  and  _359
REMARK  160  A    between atoms: _358  and  _361
REMARK  161  A    between atoms: _361  and  _362
REMARK  162  A    between atoms: _368  and  _370
REMARK  163  A    between atoms: _370  and  _371
REMARK  164  A    between atoms: _370  and  _373
REMARK  165  A    between atoms: _373  and  _374
REMARK  166  A    between atoms: _374  and  _375
REMARK  167  A    between atoms: _377  and  _379
REMARK  168  A    between atoms: _379  and  _380
REMARK  169  A    between atoms: _379  and  _382
REMARK  170  A    between atoms: _382  and  _383
REMARK  171  A    between atoms: _388  and  _390
REMARK  172  A    between atoms: _390  and  _391
REMARK  173  A    between atoms: _390  and  _393
REMARK  174  A    between atoms: _393  and  _394
REMARK  175  A    between atoms: _394  and  _395
REMARK  176  A    between atoms: _395  and  _396
REMARK  177  A    between atoms: _396  and  _397
REMARK  178  A    between atoms: _402  and  _403
REMARK  179  A    between atoms: _408  and  _410
REMARK  180  A    between atoms: _410  and  _411
REMARK  181  A    between atoms: _410  and  _413
REMARK  182  A    between atoms: _413  and  _414
REMARK  183  A    between atoms: _414  and  _415
REMARK  184  A    between atoms: _420  and  _422
REMARK  185  A    between atoms: _422  and  _423
REMARK  186  A    between atoms: _422  and  _425
REMARK  187  A    between atoms: _425  and  _426
REMARK  188  A    between atoms: _431  and  _433
REMARK  189  A    between atoms: _433  and  _434
REMARK  190  A    between atoms: _433  and  _436
REMARK  191  A    between atoms: _436  and  _437
REMARK  192  A    between atoms: _440  and  _442
REMARK  193  A    between atoms: _442  and  _443
REMARK  194  A    between atoms: _442  and  _445
REMARK  195  A    between atoms: _445  and  _446
REMARK  196  A    between atoms: _449  and  _451
REMARK  197  A    between atoms: _451  and  _452
REMARK  198  A    between atoms: _451  and  _454
REMARK  199  A    between atoms: _454  and  _455
REMARK  200  A    between atoms: _458  and  _460
REMARK  201  A    between atoms: _460  and  _461
REMARK  202  A    between atoms: _460  and  _463
REMARK  203  A    between atoms: _463  and  _464
REMARK  204  A    between atoms: _464  and  _465
REMARK  205  A    between atoms: _465  and  _466
REMARK  206  A    between atoms: _466  and  _467
REMARK  207  A    between atoms: _471  and  _473
REMARK  208  A    between atoms: _473  and  _474
REMARK  209  A    between atoms: _473  and  _476
REMARK  210  A    between atoms: _476  and  _477
REMARK  211  A    between atoms: _480  and  _482
REMARK  212  A    between atoms: _482  and  _483
REMARK  213  A    between atoms: _486  and  _488
REMARK  214  A    between atoms: _488  and  _489
REMARK  215  A    between atoms: _488  and  _491
REMARK  216  A    between atoms: _491  and  _492
REMARK  217  A    between atoms: _495  and  _497
REMARK  218  A    between atoms: _497  and  _498
REMARK  219  A    between atoms: _497  and  _500
REMARK  220  A    between atoms: _500  and  _501
REMARK  221  A    between atoms: _507  and  _509
REMARK  222  A    between atoms: _509  and  _510
REMARK  223  A    between atoms: _509  and  _512
REMARK  224  A    between atoms: _512  and  _513
REMARK  225  A    between atoms: _516  and  _518
REMARK  226  A    between atoms: _518  and  _519
REMARK  227  A    between atoms: _518  and  _521
REMARK  228  A    between atoms: _521  and  _522
REMARK  229  A    between atoms: _522  and  _523
REMARK  230  A    between atoms: _523  and  _524
REMARK  231  A    between atoms: _533  and  _535
REMARK  232  A    between atoms: _535  and  _536
REMARK  233  A    between atoms: _535  and  _538
REMARK  234  A    between atoms: _538  and  _539
REMARK                            x       y       z     vdW  Elec       q    Type
REMARK                         _______ _______ _______ _____ _____    ______ ____
ROOT
ATOM      1  O   HOH     1      14.687  24.172   7.111  0.00  0.00    +0.000 OA
ENDROOT
TORSDOF 0
REMARK  Name = ../refined-set-2016/2fvd/2fvd_pocket.pdb
REMARK  234 active torsions:
REMARK  status: ('A' for Active; 'I' for Inactive)
REMARK    1  A    between atoms: _1  and  _3
REMARK    2  A    between atoms: _3  and  _4
REMARK    3  A    between atoms: _3  and  _6
REMARK    4  A    between atoms: _6  and  _7
REMARK    5  A    between atoms: _7  and  _8
REMARK    6  A    between atoms: _11  and  _13
REMARK    7  A    between atoms: _13  and  _14
REMARK    8  A    between atoms: _13  and  _16
REMARK    9  A    between atoms: _16  and  _17
REMARK   10  A    between atoms: _17  and  _18
REMARK   11  A    between atoms: _18  and  _19
REMARK   12  A    between atoms: _19  and  _20
REMARK   13  A    between atoms: _24  and  _26
REMARK   14  A    between atoms: _26  and  _27
REMARK   15  A    between atoms: _26  and  _29
REMARK   16  A    between atoms: _29  and  _30
REMARK   17  A    between atoms: _33  and  _35
REMARK   18  A    between atoms: _35  and  _36
REMARK   19  A    between atoms: _38  and  _40
REMARK   20  A    between atoms: _40  and  _41
REMARK   21  A    between atoms: _40  and  _43
REMARK   22  A    between atoms: _43  and  _44
REMARK   23  A    between atoms: _44  and  _45
REMARK   24  A    between atoms: _48  and  _50
REMARK   25  A    between atoms: _50  and  _51
REMARK   26  A    between atoms: _53  and  _55
REMARK   27  A    between atoms: _55  and  _56
REMARK   28  A    between atoms: _55  and  _58
REMARK   29  A    between atoms: _58  and  _59
REMARK   30  A    between atoms: _62  and  _64
REMARK   31  A    between atoms: _64  and  _65
REMARK   32  A    between atoms: _64  and  _67
REMARK   33  A    between atoms: _67  and  _68
REMARK   34  A    between atoms: _73  and  _74
REMARK   35  A    between atoms: _76  and  _78
REMARK   36  A    between atoms: _78  and  _79
REMARK   37  A    between atoms: _81  and  _83
REMARK   38  A    between atoms: _83  and  _84
REMARK   39  A    between atoms: _83  and  _86
REMARK   40  A    between atoms: _89  and  _91
REMARK   41  A    between atoms: _91  and  _92
REMARK   42  A    between atoms: _91  and  _94
REMARK   43  A    between atoms: _97  and  _99
REMARK   44  A    between atoms: _99  and  _100
REMARK   45  A    between atoms: _99  and  _102
REMARK   46  A    between atoms: _102  and  _103
REMARK   47  A    between atoms: _108  and  _109
REMARK   48  A    between atoms: _111  and  _113
REMARK   49  A    between atoms: _113  and  _114
REMARK   50  A    between atoms: _113  and  _116
REMARK   51  A    between atoms: _116  and  _117
REMARK   52  A    between atoms: _117  and  _118
REMARK   53  A    between atoms: _118  and  _119
REMARK   54  A    between atoms: _119  and  _120
REMARK   55  A    between atoms: _124  and  _126
REMARK   56  A    between atoms: _126  and  _127
REMARK   57  A    between atoms: _126  and  _129
REMARK   58  A    between atoms: _132  and  _134
REMARK   59  A    between atoms: _134  and  _135
REMARK   60  A    between atoms: _134  and  _137
REMARK   61  A    between atoms: _140  and  _142
REMARK   62  A    between atoms: _142  and  _143
REMARK   63  A    between atoms: _146  and  _148
REMARK   64  A    between atoms: _148  and  _149
REMARK   65  A    between atoms: _148  and  _151
REMARK   66  A    between atoms: _151  and  _152
REMARK   67  A    between atoms: _155  and  _157
REMARK   68  A    between atoms: _157  and  _158
REMARK   69  A    between atoms: _157  and  _160
REMARK   70  A    between atoms: _160  and  _161
REMARK   71  A    between atoms: _161  and  _162
REMARK   72  A    between atoms: _162  and  _163
REMARK   73  A    between atoms: _163  and  _164
REMARK   74  A    between atoms: _168  and  _170
REMARK   75  A    between atoms: _170  and  _171
REMARK   76  A    between atoms: _170  and  _173
REMARK   77  A    between atoms: _173  and  _174
REMARK   78  A    between atoms: _174  and  _175
REMARK   79  A    between atoms: _175  and  _176
REMARK   80  A    between atoms: _176  and  _177
REMARK   81  A    between atoms: _181  and  _183
REMARK   82  A    between atoms: _183  and  _184
REMARK   83  A    between atoms: _183  and  _186
REMARK   84  A    between atoms: _186  and  _187
REMARK   85  A    between atoms: _190  and  _192
REMARK   86  A    between atoms: _192  and  _193
REMARK   87  A    between atoms: _192  and  _195
REMARK   88  A    between atoms: _198  and  _200
REMARK   89  A    between atoms: _200  and  _201
REMARK   90  A    between atoms: _200  and  _203
REMARK   91  A    between atoms: _203  and  _204
REMARK   92  A    between atoms: _204  and  _205
REMARK   93  A    between atoms: _205  and  _206
REMARK   94  A    between atoms: _206  and  _207
REMARK   95  A    between atoms: _211  and  _213
REMARK   96  A    between atoms: _213  and  _214
REMARK   97  A    between atoms: _213  and  _216
REMARK   98  A    between atoms: _216  and  _217
REMARK   99  A    between atoms: _220  and  _222
REMARK  100  A    between atoms: _222  and  _223
REMARK  101  A    between atoms: _222  and  _225
REMARK  102  A    between atoms: _225  and  _226
REMARK  103  A    between atoms: _229  and  _231
REMARK  104  A    between atoms: _231  and  _232
REMARK  105  A    between atoms: _231  and  _234
REMARK  106  A    between atoms: _234  and  _235
REMARK  107  A    between atoms: _238  and  _240
REMARK  108  A    between atoms: _240  and  _241
REMARK  109  A    between atoms: _240  and  _243
REMARK  110  A    between atoms: _246  and  _248
REMARK  111  A    between atoms: _248  and  _249
REMARK  112  A    between atoms: _248  and  _251
REMARK  113  A    between atoms: _251  and  _252
REMARK  114  A    between atoms: _258  and  _260
REMARK  115  A    between atoms: _260  and  _261
REMARK  116  A    between atoms: _260  and  _263
REMARK  117  A    between atoms: _263  and  _264
REMARK  118  A    between atoms: _264  and  _265
REMARK  119  A    between atoms: _268  and  _270
REMARK  120  A    between atoms: _270  and  _271
REMARK  121  A    between atoms: _270  and  _273
REMARK  122  A    between atoms: _273  and  _274
REMARK  123  A    between atoms: _280  and  _282
REMARK  124  A    between atoms: _282  and  _283
REMARK  125  A    between atoms: _282  and  _285
REMARK  126  A    between atoms: _285  and  _286
REMARK  127  A    between atoms: _289  and  _291
REMARK  128  A    between atoms: _291  and  _292
REMARK  129  A    between atoms: _291  and  _294
REMARK  130  A    between atoms: _294  and  _295
REMARK  131  A    between atoms: _300  and  _302
REMARK  132  A    between atoms: _302  and  _303
REMARK  133  A    between atoms: _302  and  _305
REMARK  134  A    between atoms: _305  and  _306
REMARK  135  A    between atoms: _306  and  _307
REMARK  136  A    between atoms: _312  and  _314
REMARK  137  A    between atoms: _314  and  _315
REMARK  138  A    between atoms: _314  and  _317
REMARK  139  A    between atoms: _317  and  _318
REMARK  140  A    between atoms: _321  and  _323
REMARK  141  A    between atoms: _323  and  _324
REMARK  142  A    between atoms: _323  and  _326
REMARK  143  A    between atoms: _326  and  _327
REMARK  144  A    between atoms: _330  and  _332
REMARK  145  A    between atoms: _332  and  _333
REMARK  146  A    between atoms: _332  and  _335
REMARK  147  A    between atoms: _335  and  _336
REMARK  148  A    between atoms: _336  and  _337
REMARK  149  A    between atoms: _337  and  _338
REMARK  150  A    between atoms: _338  and  _339
REMARK  151  A    between atoms: _343  and  _345
REMARK  152  A    between atoms: _345  and  _346
REMARK  153  A    between atoms: _345  and  _348
REMARK  154  A    between atoms: _348  and  _349
REMARK  155  A    between atoms: _349  and  _350
REMARK  156  A    between atoms: _350  and  _351
REMARK  157  A    between atoms: _351  and  _352
REMARK  158  A    between atoms: _356  and  _358
REMARK  159  A    between atoms: _358  and  _359
REMARK  160  A    between atoms: _358  and  _361
REMARK  161  A    between atoms: _361  and  _362
REMARK  162  A    between atoms: _368  and  _370
REMARK  163  A    between atoms: _370  and  _371
REMARK  164  A    between atoms: _370  and  _373
REMARK  165  A    between atoms: _373  and  _374
REMARK  166  A    between atoms: _374  and  _375
REMARK  167  A    between atoms: _377  and  _379
REMARK  168  A    between atoms: _379  and  _380
REMARK  169  A    between atoms: _379  and  _382
REMARK  170  A    between atoms: _382  and  _383
REMARK  171  A    between atoms: _388  and  _390
REMARK  172  A    between atoms: _390  and  _391
REMARK  173  A    between atoms: _390  and  _393
REMARK  174  A    between atoms: _393  and  _394
REMARK  175  A    between atoms: _394  and  _395
REMARK  176  A    between atoms: _395  and  _396
REMARK  177  A    between atoms: _396  and  _397
REMARK  178  A    between atoms: _402  and  _403
REMARK  179  A    between atoms: _408  and  _410
REMARK  180  A    between atoms: _410  and  _411
REMARK  181  A    between atoms: _410  and  _413
REMARK  182  A    between atoms: _413  and  _414
REMARK  183  A    between atoms: _414  and  _415
REMARK  184  A    between atoms: _420  and  _422
REMARK  185  A    between atoms: _422  and  _423
REMARK  186  A    between atoms: _422  and  _425
REMARK  187  A    between atoms: _425  and  _426
REMARK  188  A    between atoms: _431  and  _433
REMARK  189  A    between atoms: _433  and  _434
REMARK  190  A    between atoms: _433  and  _436
REMARK  191  A    between atoms: _436  and  _437
REMARK  192  A    between atoms: _440  and  _442
REMARK  193  A    between atoms: _442  and  _443
REMARK  194  A    between atoms: _442  and  _445
REMARK  195  A    between atoms: _445  and  _446
REMARK  196  A    between atoms: _449  and  _451
REMARK  197  A    between atoms: _451  and  _452
REMARK  198  A    between atoms: _451  and  _454
REMARK  199  A    between atoms: _454  and  _455
REMARK  200  A    between atoms: _458  and  _460
REMARK  201  A    between atoms: _460  and  _461
REMARK  202  A    between atoms: _460  and  _463
REMARK  203  A    between atoms: _463  and  _464
REMARK  204  A    between atoms: _464  and  _465
REMARK  205  A    between atoms: _465  and  _466
REMARK  206  A    between atoms: _466  and  _467
REMARK  207  A    between atoms: _471  and  _473
REMARK  208  A    between atoms: _473  and  _474
REMARK  209  A    between atoms: _473  and  _476
REMARK  210  A    between atoms: _476  and  _477
REMARK  211  A    between atoms: _480  and  _482
REMARK  212  A    between atoms: _482  and  _483
REMARK  213  A    between atoms: _486  and  _488
REMARK  214  A    between atoms: _488  and  _489
REMARK  215  A    between atoms: _488  and  _491
REMARK  216  A    between atoms: _491  and  _492
REMARK  217  A    between atoms: _495  and  _497
REMARK  218  A    between atoms: _497  and  _498
REMARK  219  A    between atoms: _497  and  _500
REMARK  220  A    between atoms: _500  and  _501
REMARK  221  A    between atoms: _507  and  _509
REMARK  222  A    between atoms: _509  and  _510
REMARK  223  A    between atoms: _509  and  _512
REMARK  224  A    between atoms: _512  and  _513
REMARK  225  A    between atoms: _516  and  _518
REMARK  226  A    between atoms: _518  and  _519
REMARK  227  A    between atoms: _518  and  _521
REMARK  228  A    between atoms: _521  and  _522
REMARK  229  A    between atoms: _522  and  _523
REMARK  230  A    between atoms: _523  and  _524
REMARK  231  A    between atoms: _533  and  _535
REMARK  232  A    between atoms: _535  and  _536
REMARK  233  A    between atoms: _535  and  _538
REMARK  234  A    between atoms: _538  and  _539
REMARK                            x       y       z     vdW  Elec       q    Type
REMARK                         _______ _______ _______ _____ _____    ______ ____
ROOT
ATOM      1  O   HOH     1      13.105  24.007   3.674  0.00  0.00    +0.000 OA
ENDROOT
TORSDOF 0
REMARK  Name = ../refined-set-2016/2fvd/2fvd_pocket.pdb
REMARK  234 active torsions:
REMARK  status: ('A' for Active; 'I' for Inactive)
REMARK    1  A    between atoms: _1  and  _3
REMARK    2  A    between atoms: _3  and  _4
REMARK    3  A    between atoms: _3  and  _6
REMARK    4  A    between atoms: _6  and  _7
REMARK    5  A    between atoms: _7  and  _8
REMARK    6  A    between atoms: _11  and  _13
REMARK    7  A    between atoms: _13  and  _14
REMARK    8  A    between atoms: _13  and  _16
REMARK    9  A    between atoms: _16  and  _17
REMARK   10  A    between atoms: _17  and  _18
REMARK   11  A    between atoms: _18  and  _19
REMARK   12  A    between atoms: _19  and  _20
REMARK   13  A    between atoms: _24  and  _26
REMARK   14  A    between atoms: _26  and  _27
REMARK   15  A    between atoms: _26  and  _29
REMARK   16  A    between atoms: _29  and  _30
REMARK   17  A    between atoms: _33  and  _35
REMARK   18  A    between atoms: _35  and  _36
REMARK   19  A    between atoms: _38  and  _40
REMARK   20  A    between atoms: _40  and  _41
REMARK   21  A    between atoms: _40  and  _43
REMARK   22  A    between atoms: _43  and  _44
REMARK   23  A    between atoms: _44  and  _45
REMARK   24  A    between atoms: _48  and  _50
REMARK   25  A    between atoms: _50  and  _51
REMARK   26  A    between atoms: _53  and  _55
REMARK   27  A    between atoms: _55  and  _56
REMARK   28  A    between atoms: _55  and  _58
REMARK   29  A    between atoms: _58  and  _59
REMARK   30  A    between atoms: _62  and  _64
REMARK   31  A    between atoms: _64  and  _65
REMARK   32  A    between atoms: _64  and  _67
REMARK   33  A    between atoms: _67  and  _68
REMARK   34  A    between atoms: _73  and  _74
REMARK   35  A    between atoms: _76  and  _78
REMARK   36  A    between atoms: _78  and  _79
REMARK   37  A    between atoms: _81  and  _83
REMARK   38  A    between atoms: _83  and  _84
REMARK   39  A    between atoms: _83  and  _86
REMARK   40  A    between atoms: _89  and  _91
REMARK   41  A    between atoms: _91  and  _92
REMARK   42  A    between atoms: _91  and  _94
REMARK   43  A    between atoms: _97  and  _99
REMARK   44  A    between atoms: _99  and  _100
REMARK   45  A    between atoms: _99  and  _102
REMARK   46  A    between atoms: _102  and  _103
REMARK   47  A    between atoms: _108  and  _109
REMARK   48  A    between atoms: _111  and  _113
REMARK   49  A    between atoms: _113  and  _114
REMARK   50  A    between atoms: _113  and  _116
REMARK   51  A    between atoms: _116  and  _117
REMARK   52  A    between atoms: _117  and  _118
REMARK   53  A    between atoms: _118  and  _119
REMARK   54  A    between atoms: _119  and  _120
REMARK   55  A    between atoms: _124  and  _126
REMARK   56  A    between atoms: _126  and  _127
REMARK   57  A    between atoms: _126  and  _129
REMARK   58  A    between atoms: _132  and  _134
REMARK   59  A    between atoms: _134  and  _135
REMARK   60  A    between atoms: _134  and  _137
REMARK   61  A    between atoms: _140  and  _142
REMARK   62  A    between atoms: _142  and  _143
REMARK   63  A    between atoms: _146  and  _148
REMARK   64  A    between atoms: _148  and  _149
REMARK   65  A    between atoms: _148  and  _151
REMARK   66  A    between atoms: _151  and  _152
REMARK   67  A    between atoms: _155  and  _157
REMARK   68  A    between atoms: _157  and  _158
REMARK   69  A    between atoms: _157  and  _160
REMARK   70  A    between atoms: _160  and  _161
REMARK   71  A    between atoms: _161  and  _162
REMARK   72  A    between atoms: _162  and  _163
REMARK   73  A    between atoms: _163  and  _164
REMARK   74  A    between atoms: _168  and  _170
REMARK   75  A    between atoms: _170  and  _171
REMARK   76  A    between atoms: _170  and  _173
REMARK   77  A    between atoms: _173  and  _174
REMARK   78  A    between atoms: _174  and  _175
REMARK   79  A    between atoms: _175  and  _176
REMARK   80  A    between atoms: _176  and  _177
REMARK   81  A    between atoms: _181  and  _183
REMARK   82  A    between atoms: _183  and  _184
REMARK   83  A    between atoms: _183  and  _186
REMARK   84  A    between atoms: _186  and  _187
REMARK   85  A    between atoms: _190  and  _192
REMARK   86  A    between atoms: _192  and  _193
REMARK   87  A    between atoms: _192  and  _195
REMARK   88  A    between atoms: _198  and  _200
REMARK   89  A    between atoms: _200  and  _201
REMARK   90  A    between atoms: _200  and  _203
REMARK   91  A    between atoms: _203  and  _204
REMARK   92  A    between atoms: _204  and  _205
REMARK   93  A    between atoms: _205  and  _206
REMARK   94  A    between atoms: _206  and  _207
REMARK   95  A    between atoms: _211  and  _213
REMARK   96  A    between atoms: _213  and  _214
REMARK   97  A    between atoms: _213  and  _216
REMARK   98  A    between atoms: _216  and  _217
REMARK   99  A    between atoms: _220  and  _222
REMARK  100  A    between atoms: _222  and  _223
REMARK  101  A    between atoms: _222  and  _225
REMARK  102  A    between atoms: _225  and  _226
REMARK  103  A    between atoms: _229  and  _231
REMARK  104  A    between atoms: _231  and  _232
REMARK  105  A    between atoms: _231  and  _234
REMARK  106  A    between atoms: _234  and  _235
REMARK  107  A    between atoms: _238  and  _240
REMARK  108  A    between atoms: _240  and  _241
REMARK  109  A    between atoms: _240  and  _243
REMARK  110  A    between atoms: _246  and  _248
REMARK  111  A    between atoms: _248  and  _249
REMARK  112  A    between atoms: _248  and  _251
REMARK  113  A    between atoms: _251  and  _252
REMARK  114  A    between atoms: _258  and  _260
REMARK  115  A    between atoms: _260  and  _261
REMARK  116  A    between atoms: _260  and  _263
REMARK  117  A    between atoms: _263  and  _264
REMARK  118  A    between atoms: _264  and  _265
REMARK  119  A    between atoms: _268  and  _270
REMARK  120  A    between atoms: _270  and  _271
REMARK  121  A    between atoms: _270  and  _273
REMARK  122  A    between atoms: _273  and  _274
REMARK  123  A    between atoms: _280  and  _282
REMARK  124  A    between atoms: _282  and  _283
REMARK  125  A    between atoms: _282  and  _285
REMARK  126  A    between atoms: _285  and  _286
REMARK  127  A    between atoms: _289  and  _291
REMARK  128  A    between atoms: _291  and  _292
REMARK  129  A    between atoms: _291  and  _294
REMARK  130  A    between atoms: _294  and  _295
REMARK  131  A    between atoms: _300  and  _302
REMARK  132  A    between atoms: _302  and  _303
REMARK  133  A    between atoms: _302  and  _305
REMARK  134  A    between atoms: _305  and  _306
REMARK  135  A    between atoms: _306  and  _307
REMARK  136  A    between atoms: _312  and  _314
REMARK  137  A    between atoms: _314  and  _315
REMARK  138  A    between atoms: _314  and  _317
REMARK  139  A    between atoms: _317  and  _318
REMARK  140  A    between atoms: _321  and  _323
REMARK  141  A    between atoms: _323  and  _324
REMARK  142  A    between atoms: _323  and  _326
REMARK  143  A    between atoms: _326  and  _327
REMARK  144  A    between atoms: _330  and  _332
REMARK  145  A    between atoms: _332  and  _333
REMARK  146  A    between atoms: _332  and  _335
REMARK  147  A    between atoms: _335  and  _336
REMARK  148  A    between atoms: _336  and  _337
REMARK  149  A    between atoms: _337  and  _338
REMARK  150  A    between atoms: _338  and  _339
REMARK  151  A    between atoms: _343  and  _345
REMARK  152  A    between atoms: _345  and  _346
REMARK  153  A    between atoms: _345  and  _348
REMARK  154  A    between atoms: _348  and  _349
REMARK  155  A    between atoms: _349  and  _350
REMARK  156  A    between atoms: _350  and  _351
REMARK  157  A    between atoms: _351  and  _352
REMARK  158  A    between atoms: _356  and  _358
REMARK  159  A    between atoms: _358  and  _359
REMARK  160  A    between atoms: _358  and  _361
REMARK  161  A    between atoms: _361  and  _362
REMARK  162  A    between atoms: _368  and  _370
REMARK  163  A    between atoms: _370  and  _371
REMARK  164  A    between atoms: _370  and  _373
REMARK  165  A    between atoms: _373  and  _374
REMARK  166  A    between atoms: _374  and  _375
REMARK  167  A    between atoms: _377  and  _379
REMARK  168  A    between atoms: _379  and  _380
REMARK  169  A    between atoms: _379  and  _382
REMARK  170  A    between atoms: _382  and  _383
REMARK  171  A    between atoms: _388  and  _390
REMARK  172  A    between atoms: _390  and  _391
REMARK  173  A    between atoms: _390  and  _393
REMARK  174  A    between atoms: _393  and  _394
REMARK  175  A    between atoms: _394  and  _395
REMARK  176  A    between atoms: _395  and  _396
REMARK  177  A    between atoms: _396  and  _397
REMARK  178  A    between atoms: _402  and  _403
REMARK  179  A    between atoms: _408  and  _410
REMARK  180  A    between atoms: _410  and  _411
REMARK  181  A    between atoms: _410  and  _413
REMARK  182  A    between atoms: _413  and  _414
REMARK  183  A    between atoms: _414  and  _415
REMARK  184  A    between atoms: _420  and  _422
REMARK  185  A    between atoms: _422  and  _423
REMARK  186  A    between atoms: _422  and  _425
REMARK  187  A    between atoms: _425  and  _426
REMARK  188  A    between atoms: _431  and  _433
REMARK  189  A    between atoms: _433  and  _434
REMARK  190  A    between atoms: _433  and  _436
REMARK  191  A    between atoms: _436  and  _437
REMARK  192  A    between atoms: _440  and  _442
REMARK  193  A    between atoms: _442  and  _443
REMARK  194  A    between atoms: _442  and  _445
REMARK  195  A    between atoms: _445  and  _446
REMARK  196  A    between atoms: _449  and  _451
REMARK  197  A    between atoms: _451  and  _452
REMARK  198  A    between atoms: _451  and  _454
REMARK  199  A    between atoms: _454  and  _455
REMARK  200  A    between atoms: _458  and  _460
REMARK  201  A    between atoms: _460  and  _461
REMARK  202  A    between atoms: _460  and  _463
REMARK  203  A    between atoms: _463  and  _464
REMARK  204  A    between atoms: _464  and  _465
REMARK  205  A    between atoms: _465  and  _466
REMARK  206  A    between atoms: _466  and  _467
REMARK  207  A    between atoms: _471  and  _473
REMARK  208  A    between atoms: _473  and  _474
REMARK  209  A    between atoms: _473  and  _476
REMARK  210  A    between atoms: _476  and  _477
REMARK  211  A    between atoms: _480  and  _482
REMARK  212  A    between atoms: _482  and  _483
REMARK  213  A    between atoms: _486  and  _488
REMARK  214  A    between atoms: _488  and  _489
REMARK  215  A    between atoms: _488  and  _491
REMARK  216  A    between atoms: _491  and  _492
REMARK  217  A    between atoms: _495  and  _497
REMARK  218  A    between atoms: _497  and  _498
REMARK  219  A    between atoms: _497  and  _500
REMARK  220  A    between atoms: _500  and  _501
REMARK  221  A    between atoms: _507  and  _509
REMARK  222  A    between atoms: _509  and  _510
REMARK  223  A    between atoms: _509  and  _512
REMARK  224  A    between atoms: _512  and  _513
REMARK  225  A    between atoms: _516  and  _518
REMARK  226  A    between atoms: _518  and  _519
REMARK  227  A    between atoms: _518  and  _521
REMARK  228  A    between atoms: _521  and  _522
REMARK  229  A    between atoms: _522  and  _523
REMARK  230  A    between atoms: _523  and  _524
REMARK  231  A    between atoms: _533  and  _535
REMARK  232  A    between atoms: _535  and  _536
REMARK  233  A    between atoms: _535  and  _538
REMARK  234  A    between atoms: _538  and  _539
REMARK                            x       y       z     vdW  Elec       q    Type
REMARK                         _______ _______ _______ _____ _____    ______ ____
ROOT
ATOM      1  O   HOH     1       8.729  21.384   5.753  0.00  0.00    +0.000 OA
ENDROOT
TORSDOF 0
REMARK  Name = ../refined-set-2016/2fvd/2fvd_pocket.pdb
REMARK  234 active torsions:
REMARK  status: ('A' for Active; 'I' for Inactive)
REMARK    1  A    between atoms: _1  and  _3
REMARK    2  A    between atoms: _3  and  _4
REMARK    3  A    between atoms: _3  and  _6
REMARK    4  A    between atoms: _6  and  _7
REMARK    5  A    between atoms: _7  and  _8
REMARK    6  A    between atoms: _11  and  _13
REMARK    7  A    between atoms: _13  and  _14
REMARK    8  A    between atoms: _13  and  _16
REMARK    9  A    between atoms: _16  and  _17
REMARK   10  A    between atoms: _17  and  _18
REMARK   11  A    between atoms: _18  and  _19
REMARK   12  A    between atoms: _19  and  _20
REMARK   13  A    between atoms: _24  and  _26
REMARK   14  A    between atoms: _26  and  _27
REMARK   15  A    between atoms: _26  and  _29
REMARK   16  A    between atoms: _29  and  _30
REMARK   17  A    between atoms: _33  and  _35
REMARK   18  A    between atoms: _35  and  _36
REMARK   19  A    between atoms: _38  and  _40
REMARK   20  A    between atoms: _40  and  _41
REMARK   21  A    between atoms: _40  and  _43
REMARK   22  A    between atoms: _43  and  _44
REMARK   23  A    between atoms: _44  and  _45
REMARK   24  A    between atoms: _48  and  _50
REMARK   25  A    between atoms: _50  and  _51
REMARK   26  A    between atoms: _53  and  _55
REMARK   27  A    between atoms: _55  and  _56
REMARK   28  A    between atoms: _55  and  _58
REMARK   29  A    between atoms: _58  and  _59
REMARK   30  A    between atoms: _62  and  _64
REMARK   31  A    between atoms: _64  and  _65
REMARK   32  A    between atoms: _64  and  _67
REMARK   33  A    between atoms: _67  and  _68
REMARK   34  A    between atoms: _73  and  _74
REMARK   35  A    between atoms: _76  and  _78
REMARK   36  A    between atoms: _78  and  _79
REMARK   37  A    between atoms: _81  and  _83
REMARK   38  A    between atoms: _83  and  _84
REMARK   39  A    between atoms: _83  and  _86
REMARK   40  A    between atoms: _89  and  _91
REMARK   41  A    between atoms: _91  and  _92
REMARK   42  A    between atoms: _91  and  _94
REMARK   43  A    between atoms: _97  and  _99
REMARK   44  A    between atoms: _99  and  _100
REMARK   45  A    between atoms: _99  and  _102
REMARK   46  A    between atoms: _102  and  _103
REMARK   47  A    between atoms: _108  and  _109
REMARK   48  A    between atoms: _111  and  _113
REMARK   49  A    between atoms: _113  and  _114
REMARK   50  A    between atoms: _113  and  _116
REMARK   51  A    between atoms: _116  and  _117
REMARK   52  A    between atoms: _117  and  _118
REMARK   53  A    between atoms: _118  and  _119
REMARK   54  A    between atoms: _119  and  _120
REMARK   55  A    between atoms: _124  and  _126
REMARK   56  A    between atoms: _126  and  _127
REMARK   57  A    between atoms: _126  and  _129
REMARK   58  A    between atoms: _132  and  _134
REMARK   59  A    between atoms: _134  and  _135
REMARK   60  A    between atoms: _134  and  _137
REMARK   61  A    between atoms: _140  and  _142
REMARK   62  A    between atoms: _142  and  _143
REMARK   63  A    between atoms: _146  and  _148
REMARK   64  A    between atoms: _148  and  _149
REMARK   65  A    between atoms: _148  and  _151
REMARK   66  A    between atoms: _151  and  _152
REMARK   67  A    between atoms: _155  and  _157
REMARK   68  A    between atoms: _157  and  _158
REMARK   69  A    between atoms: _157  and  _160
REMARK   70  A    between atoms: _160  and  _161
REMARK   71  A    between atoms: _161  and  _162
REMARK   72  A    between atoms: _162  and  _163
REMARK   73  A    between atoms: _163  and  _164
REMARK   74  A    between atoms: _168  and  _170
REMARK   75  A    between atoms: _170  and  _171
REMARK   76  A    between atoms: _170  and  _173
REMARK   77  A    between atoms: _173  and  _174
REMARK   78  A    between atoms: _174  and  _175
REMARK   79  A    between atoms: _175  and  _176
REMARK   80  A    between atoms: _176  and  _177
REMARK   81  A    between atoms: _181  and  _183
REMARK   82  A    between atoms: _183  and  _184
REMARK   83  A    between atoms: _183  and  _186
REMARK   84  A    between atoms: _186  and  _187
REMARK   85  A    between atoms: _190  and  _192
REMARK   86  A    between atoms: _192  and  _193
REMARK   87  A    between atoms: _192  and  _195
REMARK   88  A    between atoms: _198  and  _200
REMARK   89  A    between atoms: _200  and  _201
REMARK   90  A    between atoms: _200  and  _203
REMARK   91  A    between atoms: _203  and  _204
REMARK   92  A    between atoms: _204  and  _205
REMARK   93  A    between atoms: _205  and  _206
REMARK   94  A    between atoms: _206  and  _207
REMARK   95  A    between atoms: _211  and  _213
REMARK   96  A    between atoms: _213  and  _214
REMARK   97  A    between atoms: _213  and  _216
REMARK   98  A    between atoms: _216  and  _217
REMARK   99  A    between atoms: _220  and  _222
REMARK  100  A    between atoms: _222  and  _223
REMARK  101  A    between atoms: _222  and  _225
REMARK  102  A    between atoms: _225  and  _226
REMARK  103  A    between atoms: _229  and  _231
REMARK  104  A    between atoms: _231  and  _232
REMARK  105  A    between atoms: _231  and  _234
REMARK  106  A    between atoms: _234  and  _235
REMARK  107  A    between atoms: _238  and  _240
REMARK  108  A    between atoms: _240  and  _241
REMARK  109  A    between atoms: _240  and  _243
REMARK  110  A    between atoms: _246  and  _248
REMARK  111  A    between atoms: _248  and  _249
REMARK  112  A    between atoms: _248  and  _251
REMARK  113  A    between atoms: _251  and  _252
REMARK  114  A    between atoms: _258  and  _260
REMARK  115  A    between atoms: _260  and  _261
REMARK  116  A    between atoms: _260  and  _263
REMARK  117  A    between atoms: _263  and  _264
REMARK  118  A    between atoms: _264  and  _265
REMARK  119  A    between atoms: _268  and  _270
REMARK  120  A    between atoms: _270  and  _271
REMARK  121  A    between atoms: _270  and  _273
REMARK  122  A    between atoms: _273  and  _274
REMARK  123  A    between atoms: _280  and  _282
REMARK  124  A    between atoms: _282  and  _283
REMARK  125  A    between atoms: _282  and  _285
REMARK  126  A    between atoms: _285  and  _286
REMARK  127  A    between atoms: _289  and  _291
REMARK  128  A    between atoms: _291  and  _292
REMARK  129  A    between atoms: _291  and  _294
REMARK  130  A    between atoms: _294  and  _295
REMARK  131  A    between atoms: _300  and  _302
REMARK  132  A    between atoms: _302  and  _303
REMARK  133  A    between atoms: _302  and  _305
REMARK  134  A    between atoms: _305  and  _306
REMARK  135  A    between atoms: _306  and  _307
REMARK  136  A    between atoms: _312  and  _314
REMARK  137  A    between atoms: _314  and  _315
REMARK  138  A    between atoms: _314  and  _317
REMARK  139  A    between atoms: _317  and  _318
REMARK  140  A    between atoms: _321  and  _323
REMARK  141  A    between atoms: _323  and  _324
REMARK  142  A    between atoms: _323  and  _326
REMARK  143  A    between atoms: _326  and  _327
REMARK  144  A    between atoms: _330  and  _332
REMARK  145  A    between atoms: _332  and  _333
REMARK  146  A    between atoms: _332  and  _335
REMARK  147  A    between atoms: _335  and  _336
REMARK  148  A    between atoms: _336  and  _337
REMARK  149  A    between atoms: _337  and  _338
REMARK  150  A    between atoms: _338  and  _339
REMARK  151  A    between atoms: _343  and  _345
REMARK  152  A    between atoms: _345  and  _346
REMARK  153  A    between atoms: _345  and  _348
REMARK  154  A    between atoms: _348  and  _349
REMARK  155  A    between atoms: _349  and  _350
REMARK  156  A    between atoms: _350  and  _351
REMARK  157  A    between atoms: _351  and  _352
REMARK  158  A    between atoms: _356  and  _358
REMARK  159  A    between atoms: _358  and  _359
REMARK  160  A    between atoms: _358  and  _361
REMARK  161  A    between atoms: _361  and  _362
REMARK  162  A    between atoms: _368  and  _370
REMARK  163  A    between atoms: _370  and  _371
REMARK  164  A    between atoms: _370  and  _373
REMARK  165  A    between atoms: _373  and  _374
REMARK  166  A    between atoms: _374  and  _375
REMARK  167  A    between atoms: _377  and  _379
REMARK  168  A    between atoms: _379  and  _380
REMARK  169  A    between atoms: _379  and  _382
REMARK  170  A    between atoms: _382  and  _383
REMARK  171  A    between atoms: _388  and  _390
REMARK  172  A    between atoms: _390  and  _391
REMARK  173  A    between atoms: _390  and  _393
REMARK  174  A    between atoms: _393  and  _394
REMARK  175  A    between atoms: _394  and  _395
REMARK  176  A    between atoms: _395  and  _396
REMARK  177  A    between atoms: _396  and  _397
REMARK  178  A    between atoms: _402  and  _403
REMARK  179  A    between atoms: _408  and  _410
REMARK  180  A    between atoms: _410  and  _411
REMARK  181  A    between atoms: _410  and  _413
REMARK  182  A    between atoms: _413  and  _414
REMARK  183  A    between atoms: _414  and  _415
REMARK  184  A    between atoms: _420  and  _422
REMARK  185  A    between atoms: _422  and  _423
REMARK  186  A    between atoms: _422  and  _425
REMARK  187  A    between atoms: _425  and  _426
REMARK  188  A    between atoms: _431  and  _433
REMARK  189  A    between atoms: _433  and  _434
REMARK  190  A    between atoms: _433  and  _436
REMARK  191  A    between atoms: _436  and  _437
REMARK  192  A    between atoms: _440  and  _442
REMARK  193  A    between atoms: _442  and  _443
REMARK  194  A    between atoms: _442  and  _445
REMARK  195  A    between atoms: _445  and  _446
REMARK  196  A    between atoms: _449  and  _451
REMARK  197  A    between atoms: _451  and  _452
REMARK  198  A    between atoms: _451  and  _454
REMARK  199  A    between atoms: _454  and  _455
REMARK  200  A    between atoms: _458  and  _460
REMARK  201  A    between atoms: _460  and  _461
REMARK  202  A    between atoms: _460  and  _463
REMARK  203  A    between atoms: _463  and  _464
REMARK  204  A    between atoms: _464  and  _465
REMARK  205  A    between atoms: _465  and  _466
REMARK  206  A    between atoms: _466  and  _467
REMARK  207  A    between atoms: _471  and  _473
REMARK  208  A    between atoms: _473  and  _474
REMARK  209  A    between atoms: _473  and  _476
REMARK  210  A    between atoms: _476  and  _477
REMARK  211  A    between atoms: _480  and  _482
REMARK  212  A    between atoms: _482  and  _483
REMARK  213  A    between atoms: _486  and  _488
REMARK  214  A    between atoms: _488  and  _489
REMARK  215  A    between atoms: _488  and  _491
REMARK  216  A    between atoms: _491  and  _492
REMARK  217  A    between atoms: _495  and  _497
REMARK  218  A    between atoms: _497  and  _498
REMARK  219  A    between atoms: _497  and  _500
REMARK  220  A    between atoms: _500  and  _501
REMARK  221  A    between atoms: _507  and  _509
REMARK  222  A    between atoms: _509  and  _510
REMARK  223  A    between atoms: _509  and  _512
REMARK  224  A    between atoms: _512  and  _513
REMARK  225  A    between atoms: _516  and  _518
REMARK  226  A    between atoms: _518  and  _519
REMARK  227  A    between atoms: _518  and  _521
REMARK  228  A    between atoms: _521  and  _522
REMARK  229  A    between atoms: _522  and  _523
REMARK  230  A    between atoms: _523  and  _524
REMARK  231  A    between atoms: _533  and  _535
REMARK  232  A    between atoms: _535  and  _536
REMARK  233  A    between atoms: _535  and  _538
REMARK  234  A    between atoms: _538  and  _539
REMARK                            x       y       z     vdW  Elec       q    Type
REMARK                         _______ _______ _______ _____ _____    ______ ____
ROOT
ATOM      1  O   HOH     1      -1.908  25.897  14.729  0.00  0.00    +0.000 OA
ENDROOT
TORSDOF 0
REMARK  Name = ../refined-set-2016/2fvd/2fvd_pocket.pdb
REMARK  234 active torsions:
REMARK  status: ('A' for Active; 'I' for Inactive)
REMARK    1  A    between atoms: _1  and  _3
REMARK    2  A    between atoms: _3  and  _4
REMARK    3  A    between atoms: _3  and  _6
REMARK    4  A    between atoms: _6  and  _7
REMARK    5  A    between atoms: _7  and  _8
REMARK    6  A    between atoms: _11  and  _13
REMARK    7  A    between atoms: _13  and  _14
REMARK    8  A    between atoms: _13  and  _16
REMARK    9  A    between atoms: _16  and  _17
REMARK   10  A    between atoms: _17  and  _18
REMARK   11  A    between atoms: _18  and  _19
REMARK   12  A    between atoms: _19  and  _20
REMARK   13  A    between atoms: _24  and  _26
REMARK   14  A    between atoms: _26  and  _27
REMARK   15  A    between atoms: _26  and  _29
REMARK   16  A    between atoms: _29  and  _30
REMARK   17  A    between atoms: _33  and  _35
REMARK   18  A    between atoms: _35  and  _36
REMARK   19  A    between atoms: _38  and  _40
REMARK   20  A    between atoms: _40  and  _41
REMARK   21  A    between atoms: _40  and  _43
REMARK   22  A    between atoms: _43  and  _44
REMARK   23  A    between atoms: _44  and  _45
REMARK   24  A    between atoms: _48  and  _50
REMARK   25  A    between atoms: _50  and  _51
REMARK   26  A    between atoms: _53  and  _55
REMARK   27  A    between atoms: _55  and  _56
REMARK   28  A    between atoms: _55  and  _58
REMARK   29  A    between atoms: _58  and  _59
REMARK   30  A    between atoms: _62  and  _64
REMARK   31  A    between atoms: _64  and  _65
REMARK   32  A    between atoms: _64  and  _67
REMARK   33  A    between atoms: _67  and  _68
REMARK   34  A    between atoms: _73  and  _74
REMARK   35  A    between atoms: _76  and  _78
REMARK   36  A    between atoms: _78  and  _79
REMARK   37  A    between atoms: _81  and  _83
REMARK   38  A    between atoms: _83  and  _84
REMARK   39  A    between atoms: _83  and  _86
REMARK   40  A    between atoms: _89  and  _91
REMARK   41  A    between atoms: _91  and  _92
REMARK   42  A    between atoms: _91  and  _94
REMARK   43  A    between atoms: _97  and  _99
REMARK   44  A    between atoms: _99  and  _100
REMARK   45  A    between atoms: _99  and  _102
REMARK   46  A    between atoms: _102  and  _103
REMARK   47  A    between atoms: _108  and  _109
REMARK   48  A    between atoms: _111  and  _113
REMARK   49  A    between atoms: _113  and  _114
REMARK   50  A    between atoms: _113  and  _116
REMARK   51  A    between atoms: _116  and  _117
REMARK   52  A    between atoms: _117  and  _118
REMARK   53  A    between atoms: _118  and  _119
REMARK   54  A    between atoms: _119  and  _120
REMARK   55  A    between atoms: _124  and  _126
REMARK   56  A    between atoms: _126  and  _127
REMARK   57  A    between atoms: _126  and  _129
REMARK   58  A    between atoms: _132  and  _134
REMARK   59  A    between atoms: _134  and  _135
REMARK   60  A    between atoms: _134  and  _137
REMARK   61  A    between atoms: _140  and  _142
REMARK   62  A    between atoms: _142  and  _143
REMARK   63  A    between atoms: _146  and  _148
REMARK   64  A    between atoms: _148  and  _149
REMARK   65  A    between atoms: _148  and  _151
REMARK   66  A    between atoms: _151  and  _152
REMARK   67  A    between atoms: _155  and  _157
REMARK   68  A    between atoms: _157  and  _158
REMARK   69  A    between atoms: _157  and  _160
REMARK   70  A    between atoms: _160  and  _161
REMARK   71  A    between atoms: _161  and  _162
REMARK   72  A    between atoms: _162  and  _163
REMARK   73  A    between atoms: _163  and  _164
REMARK   74  A    between atoms: _168  and  _170
REMARK   75  A    between atoms: _170  and  _171
REMARK   76  A    between atoms: _170  and  _173
REMARK   77  A    between atoms: _173  and  _174
REMARK   78  A    between atoms: _174  and  _175
REMARK   79  A    between atoms: _175  and  _176
REMARK   80  A    between atoms: _176  and  _177
REMARK   81  A    between atoms: _181  and  _183
REMARK   82  A    between atoms: _183  and  _184
REMARK   83  A    between atoms: _183  and  _186
REMARK   84  A    between atoms: _186  and  _187
REMARK   85  A    between atoms: _190  and  _192
REMARK   86  A    between atoms: _192  and  _193
REMARK   87  A    between atoms: _192  and  _195
REMARK   88  A    between atoms: _198  and  _200
REMARK   89  A    between atoms: _200  and  _201
REMARK   90  A    between atoms: _200  and  _203
REMARK   91  A    between atoms: _203  and  _204
REMARK   92  A    between atoms: _204  and  _205
REMARK   93  A    between atoms: _205  and  _206
REMARK   94  A    between atoms: _206  and  _207
REMARK   95  A    between atoms: _211  and  _213
REMARK   96  A    between atoms: _213  and  _214
REMARK   97  A    between atoms: _213  and  _216
REMARK   98  A    between atoms: _216  and  _217
REMARK   99  A    between atoms: _220  and  _222
REMARK  100  A    between atoms: _222  and  _223
REMARK  101  A    between atoms: _222  and  _225
REMARK  102  A    between atoms: _225  and  _226
REMARK  103  A    between atoms: _229  and  _231
REMARK  104  A    between atoms: _231  and  _232
REMARK  105  A    between atoms: _231  and  _234
REMARK  106  A    between atoms: _234  and  _235
REMARK  107  A    between atoms: _238  and  _240
REMARK  108  A    between atoms: _240  and  _241
REMARK  109  A    between atoms: _240  and  _243
REMARK  110  A    between atoms: _246  and  _248
REMARK  111  A    between atoms: _248  and  _249
REMARK  112  A    between atoms: _248  and  _251
REMARK  113  A    between atoms: _251  and  _252
REMARK  114  A    between atoms: _258  and  _260
REMARK  115  A    between atoms: _260  and  _261
REMARK  116  A    between atoms: _260  and  _263
REMARK  117  A    between atoms: _263  and  _264
REMARK  118  A    between atoms: _264  and  _265
REMARK  119  A    between atoms: _268  and  _270
REMARK  120  A    between atoms: _270  and  _271
REMARK  121  A    between atoms: _270  and  _273
REMARK  122  A    between atoms: _273  and  _274
REMARK  123  A    between atoms: _280  and  _282
REMARK  124  A    between atoms: _282  and  _283
REMARK  125  A    between atoms: _282  and  _285
REMARK  126  A    between atoms: _285  and  _286
REMARK  127  A    between atoms: _289  and  _291
REMARK  128  A    between atoms: _291  and  _292
REMARK  129  A    between atoms: _291  and  _294
REMARK  130  A    between atoms: _294  and  _295
REMARK  131  A    between atoms: _300  and  _302
REMARK  132  A    between atoms: _302  and  _303
REMARK  133  A    between atoms: _302  and  _305
REMARK  134  A    between atoms: _305  and  _306
REMARK  135  A    between atoms: _306  and  _307
REMARK  136  A    between atoms: _312  and  _314
REMARK  137  A    between atoms: _314  and  _315
REMARK  138  A    between atoms: _314  and  _317
REMARK  139  A    between atoms: _317  and  _318
REMARK  140  A    between atoms: _321  and  _323
REMARK  141  A    between atoms: _323  and  _324
REMARK  142  A    between atoms: _323  and  _326
REMARK  143  A    between atoms: _326  and  _327
REMARK  144  A    between atoms: _330  and  _332
REMARK  145  A    between atoms: _332  and  _333
REMARK  146  A    between atoms: _332  and  _335
REMARK  147  A    between atoms: _335  and  _336
REMARK  148  A    between atoms: _336  and  _337
REMARK  149  A    between atoms: _337  and  _338
REMARK  150  A    between atoms: _338  and  _339
REMARK  151  A    between atoms: _343  and  _345
REMARK  152  A    between atoms: _345  and  _346
REMARK  153  A    between atoms: _345  and  _348
REMARK  154  A    between atoms: _348  and  _349
REMARK  155  A    between atoms: _349  and  _350
REMARK  156  A    between atoms: _350  and  _351
REMARK  157  A    between atoms: _351  and  _352
REMARK  158  A    between atoms: _356  and  _358
REMARK  159  A    between atoms: _358  and  _359
REMARK  160  A    between atoms: _358  and  _361
REMARK  161  A    between atoms: _361  and  _362
REMARK  162  A    between atoms: _368  and  _370
REMARK  163  A    between atoms: _370  and  _371
REMARK  164  A    between atoms: _370  and  _373
REMARK  165  A    between atoms: _373  and  _374
REMARK  166  A    between atoms: _374  and  _375
REMARK  167  A    between atoms: _377  and  _379
REMARK  168  A    between atoms: _379  and  _380
REMARK  169  A    between atoms: _379  and  _382
REMARK  170  A    between atoms: _382  and  _383
REMARK  171  A    between atoms: _388  and  _390
REMARK  172  A    between atoms: _390  and  _391
REMARK  173  A    between atoms: _390  and  _393
REMARK  174  A    between atoms: _393  and  _394
REMARK  175  A    between atoms: _394  and  _395
REMARK  176  A    between atoms: _395  and  _396
REMARK  177  A    between atoms: _396  and  _397
REMARK  178  A    between atoms: _402  and  _403
REMARK  179  A    between atoms: _408  and  _410
REMARK  180  A    between atoms: _410  and  _411
REMARK  181  A    between atoms: _410  and  _413
REMARK  182  A    between atoms: _413  and  _414
REMARK  183  A    between atoms: _414  and  _415
REMARK  184  A    between atoms: _420  and  _422
REMARK  185  A    between atoms: _422  and  _423
REMARK  186  A    between atoms: _422  and  _425
REMARK  187  A    between atoms: _425  and  _426
REMARK  188  A    between atoms: _431  and  _433
REMARK  189  A    between atoms: _433  and  _434
REMARK  190  A    between atoms: _433  and  _436
REMARK  191  A    between atoms: _436  and  _437
REMARK  192  A    between atoms: _440  and  _442
REMARK  193  A    between atoms: _442  and  _443
REMARK  194  A    between atoms: _442  and  _445
REMARK  195  A    between atoms: _445  and  _446
REMARK  196  A    between atoms: _449  and  _451
REMARK  197  A    between atoms: _451  and  _452
REMARK  198  A    between atoms: _451  and  _454
REMARK  199  A    between atoms: _454  and  _455
REMARK  200  A    between atoms: _458  and  _460
REMARK  201  A    between atoms: _460  and  _461
REMARK  202  A    between atoms: _460  and  _463
REMARK  203  A    between atoms: _463  and  _464
REMARK  204  A    between atoms: _464  and  _465
REMARK  205  A    between atoms: _465  and  _466
REMARK  206  A    between atoms: _466  and  _467
REMARK  207  A    between atoms: _471  and  _473
REMARK  208  A    between atoms: _473  and  _474
REMARK  209  A    between atoms: _473  and  _476
REMARK  210  A    between atoms: _476  and  _477
REMARK  211  A    between atoms: _480  and  _482
REMARK  212  A    between atoms: _482  and  _483
REMARK  213  A    between atoms: _486  and  _488
REMARK  214  A    between atoms: _488  and  _489
REMARK  215  A    between atoms: _488  and  _491
REMARK  216  A    between atoms: _491  and  _492
REMARK  217  A    between atoms: _495  and  _497
REMARK  218  A    between atoms: _497  and  _498
REMARK  219  A    between atoms: _497  and  _500
REMARK  220  A    between atoms: _500  and  _501
REMARK  221  A    between atoms: _507  and  _509
REMARK  222  A    between atoms: _509  and  _510
REMARK  223  A    between atoms: _509  and  _512
REMARK  224  A    between atoms: _512  and  _513
REMARK  225  A    between atoms: _516  and  _518
REMARK  226  A    between atoms: _518  and  _519
REMARK  227  A    between atoms: _518  and  _521
REMARK  228  A    between atoms: _521  and  _522
REMARK  229  A    between atoms: _522  and  _523
REMARK  230  A    between atoms: _523  and  _524
REMARK  231  A    between atoms: _533  and  _535
REMARK  232  A    between atoms: _535  and  _536
REMARK  233  A    between atoms: _535  and  _538
REMARK  234  A    between atoms: _538  and  _539
REMARK                            x       y       z     vdW  Elec       q    Type
REMARK                         _______ _______ _______ _____ _____    ______ ____
ROOT
ATOM      1  O   HOH     1       2.597  23.756   8.363  0.00  0.00    +0.000 OA
ENDROOT
TORSDOF 0
REMARK  Name = ../refined-set-2016/2fvd/2fvd_pocket.pdb
REMARK  234 active torsions:
REMARK  status: ('A' for Active; 'I' for Inactive)
REMARK    1  A    between atoms: _1  and  _3
REMARK    2  A    between atoms: _3  and  _4
REMARK    3  A    between atoms: _3  and  _6
REMARK    4  A    between atoms: _6  and  _7
REMARK    5  A    between atoms: _7  and  _8
REMARK    6  A    between atoms: _11  and  _13
REMARK    7  A    between atoms: _13  and  _14
REMARK    8  A    between atoms: _13  and  _16
REMARK    9  A    between atoms: _16  and  _17
REMARK   10  A    between atoms: _17  and  _18
REMARK   11  A    between atoms: _18  and  _19
REMARK   12  A    between atoms: _19  and  _20
REMARK   13  A    between atoms: _24  and  _26
REMARK   14  A    between atoms: _26  and  _27
REMARK   15  A    between atoms: _26  and  _29
REMARK   16  A    between atoms: _29  and  _30
REMARK   17  A    between atoms: _33  and  _35
REMARK   18  A    between atoms: _35  and  _36
REMARK   19  A    between atoms: _38  and  _40
REMARK   20  A    between atoms: _40  and  _41
REMARK   21  A    between atoms: _40  and  _43
REMARK   22  A    between atoms: _43  and  _44
REMARK   23  A    between atoms: _44  and  _45
REMARK   24  A    between atoms: _48  and  _50
REMARK   25  A    between atoms: _50  and  _51
REMARK   26  A    between atoms: _53  and  _55
REMARK   27  A    between atoms: _55  and  _56
REMARK   28  A    between atoms: _55  and  _58
REMARK   29  A    between atoms: _58  and  _59
REMARK   30  A    between atoms: _62  and  _64
REMARK   31  A    between atoms: _64  and  _65
REMARK   32  A    between atoms: _64  and  _67
REMARK   33  A    between atoms: _67  and  _68
REMARK   34  A    between atoms: _73  and  _74
REMARK   35  A    between atoms: _76  and  _78
REMARK   36  A    between atoms: _78  and  _79
REMARK   37  A    between atoms: _81  and  _83
REMARK   38  A    between atoms: _83  and  _84
REMARK   39  A    between atoms: _83  and  _86
REMARK   40  A    between atoms: _89  and  _91
REMARK   41  A    between atoms: _91  and  _92
REMARK   42  A    between atoms: _91  and  _94
REMARK   43  A    between atoms: _97  and  _99
REMARK   44  A    between atoms: _99  and  _100
REMARK   45  A    between atoms: _99  and  _102
REMARK   46  A    between atoms: _102  and  _103
REMARK   47  A    between atoms: _108  and  _109
REMARK   48  A    between atoms: _111  and  _113
REMARK   49  A    between atoms: _113  and  _114
REMARK   50  A    between atoms: _113  and  _116
REMARK   51  A    between atoms: _116  and  _117
REMARK   52  A    between atoms: _117  and  _118
REMARK   53  A    between atoms: _118  and  _119
REMARK   54  A    between atoms: _119  and  _120
REMARK   55  A    between atoms: _124  and  _126
REMARK   56  A    between atoms: _126  and  _127
REMARK   57  A    between atoms: _126  and  _129
REMARK   58  A    between atoms: _132  and  _134
REMARK   59  A    between atoms: _134  and  _135
REMARK   60  A    between atoms: _134  and  _137
REMARK   61  A    between atoms: _140  and  _142
REMARK   62  A    between atoms: _142  and  _143
REMARK   63  A    between atoms: _146  and  _148
REMARK   64  A    between atoms: _148  and  _149
REMARK   65  A    between atoms: _148  and  _151
REMARK   66  A    between atoms: _151  and  _152
REMARK   67  A    between atoms: _155  and  _157
REMARK   68  A    between atoms: _157  and  _158
REMARK   69  A    between atoms: _157  and  _160
REMARK   70  A    between atoms: _160  and  _161
REMARK   71  A    between atoms: _161  and  _162
REMARK   72  A    between atoms: _162  and  _163
REMARK   73  A    between atoms: _163  and  _164
REMARK   74  A    between atoms: _168  and  _170
REMARK   75  A    between atoms: _170  and  _171
REMARK   76  A    between atoms: _170  and  _173
REMARK   77  A    between atoms: _173  and  _174
REMARK   78  A    between atoms: _174  and  _175
REMARK   79  A    between atoms: _175  and  _176
REMARK   80  A    between atoms: _176  and  _177
REMARK   81  A    between atoms: _181  and  _183
REMARK   82  A    between atoms: _183  and  _184
REMARK   83  A    between atoms: _183  and  _186
REMARK   84  A    between atoms: _186  and  _187
REMARK   85  A    between atoms: _190  and  _192
REMARK   86  A    between atoms: _192  and  _193
REMARK   87  A    between atoms: _192  and  _195
REMARK   88  A    between atoms: _198  and  _200
REMARK   89  A    between atoms: _200  and  _201
REMARK   90  A    between atoms: _200  and  _203
REMARK   91  A    between atoms: _203  and  _204
REMARK   92  A    between atoms: _204  and  _205
REMARK   93  A    between atoms: _205  and  _206
REMARK   94  A    between atoms: _206  and  _207
REMARK   95  A    between atoms: _211  and  _213
REMARK   96  A    between atoms: _213  and  _214
REMARK   97  A    between atoms: _213  and  _216
REMARK   98  A    between atoms: _216  and  _217
REMARK   99  A    between atoms: _220  and  _222
REMARK  100  A    between atoms: _222  and  _223
REMARK  101  A    between atoms: _222  and  _225
REMARK  102  A    between atoms: _225  and  _226
REMARK  103  A    between atoms: _229  and  _231
REMARK  104  A    between atoms: _231  and  _232
REMARK  105  A    between atoms: _231  and  _234
REMARK  106  A    between atoms: _234  and  _235
REMARK  107  A    between atoms: _238  and  _240
REMARK  108  A    between atoms: _240  and  _241
REMARK  109  A    between atoms: _240  and  _243
REMARK  110  A    between atoms: _246  and  _248
REMARK  111  A    between atoms: _248  and  _249
REMARK  112  A    between atoms: _248  and  _251
REMARK  113  A    between atoms: _251  and  _252
REMARK  114  A    between atoms: _258  and  _260
REMARK  115  A    between atoms: _260  and  _261
REMARK  116  A    between atoms: _260  and  _263
REMARK  117  A    between atoms: _263  and  _264
REMARK  118  A    between atoms: _264  and  _265
REMARK  119  A    between atoms: _268  and  _270
REMARK  120  A    between atoms: _270  and  _271
REMARK  121  A    between atoms: _270  and  _273
REMARK  122  A    between atoms: _273  and  _274
REMARK  123  A    between atoms: _280  and  _282
REMARK  124  A    between atoms: _282  and  _283
REMARK  125  A    between atoms: _282  and  _285
REMARK  126  A    between atoms: _285  and  _286
REMARK  127  A    between atoms: _289  and  _291
REMARK  128  A    between atoms: _291  and  _292
REMARK  129  A    between atoms: _291  and  _294
REMARK  130  A    between atoms: _294  and  _295
REMARK  131  A    between atoms: _300  and  _302
REMARK  132  A    between atoms: _302  and  _303
REMARK  133  A    between atoms: _302  and  _305
REMARK  134  A    between atoms: _305  and  _306
REMARK  135  A    between atoms: _306  and  _307
REMARK  136  A    between atoms: _312  and  _314
REMARK  137  A    between atoms: _314  and  _315
REMARK  138  A    between atoms: _314  and  _317
REMARK  139  A    between atoms: _317  and  _318
REMARK  140  A    between atoms: _321  and  _323
REMARK  141  A    between atoms: _323  and  _324
REMARK  142  A    between atoms: _323  and  _326
REMARK  143  A    between atoms: _326  and  _327
REMARK  144  A    between atoms: _330  and  _332
REMARK  145  A    between atoms: _332  and  _333
REMARK  146  A    between atoms: _332  and  _335
REMARK  147  A    between atoms: _335  and  _336
REMARK  148  A    between atoms: _336  and  _337
REMARK  149  A    between atoms: _337  and  _338
REMARK  150  A    between atoms: _338  and  _339
REMARK  151  A    between atoms: _343  and  _345
REMARK  152  A    between atoms: _345  and  _346
REMARK  153  A    between atoms: _345  and  _348
REMARK  154  A    between atoms: _348  and  _349
REMARK  155  A    between atoms: _349  and  _350
REMARK  156  A    between atoms: _350  and  _351
REMARK  157  A    between atoms: _351  and  _352
REMARK  158  A    between atoms: _356  and  _358
REMARK  159  A    between atoms: _358  and  _359
REMARK  160  A    between atoms: _358  and  _361
REMARK  161  A    between atoms: _361  and  _362
REMARK  162  A    between atoms: _368  and  _370
REMARK  163  A    between atoms: _370  and  _371
REMARK  164  A    between atoms: _370  and  _373
REMARK  165  A    between atoms: _373  and  _374
REMARK  166  A    between atoms: _374  and  _375
REMARK  167  A    between atoms: _377  and  _379
REMARK  168  A    between atoms: _379  and  _380
REMARK  169  A    between atoms: _379  and  _382
REMARK  170  A    between atoms: _382  and  _383
REMARK  171  A    between atoms: _388  and  _390
REMARK  172  A    between atoms: _390  and  _391
REMARK  173  A    between atoms: _390  and  _393
REMARK  174  A    between atoms: _393  and  _394
REMARK  175  A    between atoms: _394  and  _395
REMARK  176  A    between atoms: _395  and  _396
REMARK  177  A    between atoms: _396  and  _397
REMARK  178  A    between atoms: _402  and  _403
REMARK  179  A    between atoms: _408  and  _410
REMARK  180  A    between atoms: _410  and  _411
REMARK  181  A    between atoms: _410  and  _413
REMARK  182  A    between atoms: _413  and  _414
REMARK  183  A    between atoms: _414  and  _415
REMARK  184  A    between atoms: _420  and  _422
REMARK  185  A    between atoms: _422  and  _423
REMARK  186  A    between atoms: _422  and  _425
REMARK  187  A    between atoms: _425  and  _426
REMARK  188  A    between atoms: _431  and  _433
REMARK  189  A    between atoms: _433  and  _434
REMARK  190  A    between atoms: _433  and  _436
REMARK  191  A    between atoms: _436  and  _437
REMARK  192  A    between atoms: _440  and  _442
REMARK  193  A    between atoms: _442  and  _443
REMARK  194  A    between atoms: _442  and  _445
REMARK  195  A    between atoms: _445  and  _446
REMARK  196  A    between atoms: _449  and  _451
REMARK  197  A    between atoms: _451  and  _452
REMARK  198  A    between atoms: _451  and  _454
REMARK  199  A    between atoms: _454  and  _455
REMARK  200  A    between atoms: _458  and  _460
REMARK  201  A    between atoms: _460  and  _461
REMARK  202  A    between atoms: _460  and  _463
REMARK  203  A    between atoms: _463  and  _464
REMARK  204  A    between atoms: _464  and  _465
REMARK  205  A    between atoms: _465  and  _466
REMARK  206  A    between atoms: _466  and  _467
REMARK  207  A    between atoms: _471  and  _473
REMARK  208  A    between atoms: _473  and  _474
REMARK  209  A    between atoms: _473  and  _476
REMARK  210  A    between atoms: _476  and  _477
REMARK  211  A    between atoms: _480  and  _482
REMARK  212  A    between atoms: _482  and  _483
REMARK  213  A    between atoms: _486  and  _488
REMARK  214  A    between atoms: _488  and  _489
REMARK  215  A    between atoms: _488  and  _491
REMARK  216  A    between atoms: _491  and  _492
REMARK  217  A    between atoms: _495  and  _497
REMARK  218  A    between atoms: _497  and  _498
REMARK  219  A    between atoms: _497  and  _500
REMARK  220  A    between atoms: _500  and  _501
REMARK  221  A    between atoms: _507  and  _509
REMARK  222  A    between atoms: _509  and  _510
REMARK  223  A    between atoms: _509  and  _512
REMARK  224  A    between atoms: _512  and  _513
REMARK  225  A    between atoms: _516  and  _518
REMARK  226  A    between atoms: _518  and  _519
REMARK  227  A    between atoms: _518  and  _521
REMARK  228  A    between atoms: _521  and  _522
REMARK  229  A    between atoms: _522  and  _523
REMARK  230  A    between atoms: _523  and  _524
REMARK  231  A    between atoms: _533  and  _535
REMARK  232  A    between atoms: _535  and  _536
REMARK  233  A    between atoms: _535  and  _538
REMARK  234  A    between atoms: _538  and  _539
REMARK                            x       y       z     vdW  Elec       q    Type
REMARK                         _______ _______ _______ _____ _____    ______ ____
ROOT
ATOM      1  O   HOH     1      -2.412  36.013  14.225  0.00  0.00    +0.000 OA
ENDROOT
TORSDOF 0
REMARK  Name = ../refined-set-2016/2fvd/2fvd_pocket.pdb
REMARK  234 active torsions:
REMARK  status: ('A' for Active; 'I' for Inactive)
REMARK    1  A    between atoms: _1  and  _3
REMARK    2  A    between atoms: _3  and  _4
REMARK    3  A    between atoms: _3  and  _6
REMARK    4  A    between atoms: _6  and  _7
REMARK    5  A    between atoms: _7  and  _8
REMARK    6  A    between atoms: _11  and  _13
REMARK    7  A    between atoms: _13  and  _14
REMARK    8  A    between atoms: _13  and  _16
REMARK    9  A    between atoms: _16  and  _17
REMARK   10  A    between atoms: _17  and  _18
REMARK   11  A    between atoms: _18  and  _19
REMARK   12  A    between atoms: _19  and  _20
REMARK   13  A    between atoms: _24  and  _26
REMARK   14  A    between atoms: _26  and  _27
REMARK   15  A    between atoms: _26  and  _29
REMARK   16  A    between atoms: _29  and  _30
REMARK   17  A    between atoms: _33  and  _35
REMARK   18  A    between atoms: _35  and  _36
REMARK   19  A    between atoms: _38  and  _40
REMARK   20  A    between atoms: _40  and  _41
REMARK   21  A    between atoms: _40  and  _43
REMARK   22  A    between atoms: _43  and  _44
REMARK   23  A    between atoms: _44  and  _45
REMARK   24  A    between atoms: _48  and  _50
REMARK   25  A    between atoms: _50  and  _51
REMARK   26  A    between atoms: _53  and  _55
REMARK   27  A    between atoms: _55  and  _56
REMARK   28  A    between atoms: _55  and  _58
REMARK   29  A    between atoms: _58  and  _59
REMARK   30  A    between atoms: _62  and  _64
REMARK   31  A    between atoms: _64  and  _65
REMARK   32  A    between atoms: _64  and  _67
REMARK   33  A    between atoms: _67  and  _68
REMARK   34  A    between atoms: _73  and  _74
REMARK   35  A    between atoms: _76  and  _78
REMARK   36  A    between atoms: _78  and  _79
REMARK   37  A    between atoms: _81  and  _83
REMARK   38  A    between atoms: _83  and  _84
REMARK   39  A    between atoms: _83  and  _86
REMARK   40  A    between atoms: _89  and  _91
REMARK   41  A    between atoms: _91  and  _92
REMARK   42  A    between atoms: _91  and  _94
REMARK   43  A    between atoms: _97  and  _99
REMARK   44  A    between atoms: _99  and  _100
REMARK   45  A    between atoms: _99  and  _102
REMARK   46  A    between atoms: _102  and  _103
REMARK   47  A    between atoms: _108  and  _109
REMARK   48  A    between atoms: _111  and  _113
REMARK   49  A    between atoms: _113  and  _114
REMARK   50  A    between atoms: _113  and  _116
REMARK   51  A    between atoms: _116  and  _117
REMARK   52  A    between atoms: _117  and  _118
REMARK   53  A    between atoms: _118  and  _119
REMARK   54  A    between atoms: _119  and  _120
REMARK   55  A    between atoms: _124  and  _126
REMARK   56  A    between atoms: _126  and  _127
REMARK   57  A    between atoms: _126  and  _129
REMARK   58  A    between atoms: _132  and  _134
REMARK   59  A    between atoms: _134  and  _135
REMARK   60  A    between atoms: _134  and  _137
REMARK   61  A    between atoms: _140  and  _142
REMARK   62  A    between atoms: _142  and  _143
REMARK   63  A    between atoms: _146  and  _148
REMARK   64  A    between atoms: _148  and  _149
REMARK   65  A    between atoms: _148  and  _151
REMARK   66  A    between atoms: _151  and  _152
REMARK   67  A    between atoms: _155  and  _157
REMARK   68  A    between atoms: _157  and  _158
REMARK   69  A    between atoms: _157  and  _160
REMARK   70  A    between atoms: _160  and  _161
REMARK   71  A    between atoms: _161  and  _162
REMARK   72  A    between atoms: _162  and  _163
REMARK   73  A    between atoms: _163  and  _164
REMARK   74  A    between atoms: _168  and  _170
REMARK   75  A    between atoms: _170  and  _171
REMARK   76  A    between atoms: _170  and  _173
REMARK   77  A    between atoms: _173  and  _174
REMARK   78  A    between atoms: _174  and  _175
REMARK   79  A    between atoms: _175  and  _176
REMARK   80  A    between atoms: _176  and  _177
REMARK   81  A    between atoms: _181  and  _183
REMARK   82  A    between atoms: _183  and  _184
REMARK   83  A    between atoms: _183  and  _186
REMARK   84  A    between atoms: _186  and  _187
REMARK   85  A    between atoms: _190  and  _192
REMARK   86  A    between atoms: _192  and  _193
REMARK   87  A    between atoms: _192  and  _195
REMARK   88  A    between atoms: _198  and  _200
REMARK   89  A    between atoms: _200  and  _201
REMARK   90  A    between atoms: _200  and  _203
REMARK   91  A    between atoms: _203  and  _204
REMARK   92  A    between atoms: _204  and  _205
REMARK   93  A    between atoms: _205  and  _206
REMARK   94  A    between atoms: _206  and  _207
REMARK   95  A    between atoms: _211  and  _213
REMARK   96  A    between atoms: _213  and  _214
REMARK   97  A    between atoms: _213  and  _216
REMARK   98  A    between atoms: _216  and  _217
REMARK   99  A    between atoms: _220  and  _222
REMARK  100  A    between atoms: _222  and  _223
REMARK  101  A    between atoms: _222  and  _225
REMARK  102  A    between atoms: _225  and  _226
REMARK  103  A    between atoms: _229  and  _231
REMARK  104  A    between atoms: _231  and  _232
REMARK  105  A    between atoms: _231  and  _234
REMARK  106  A    between atoms: _234  and  _235
REMARK  107  A    between atoms: _238  and  _240
REMARK  108  A    between atoms: _240  and  _241
REMARK  109  A    between atoms: _240  and  _243
REMARK  110  A    between atoms: _246  and  _248
REMARK  111  A    between atoms: _248  and  _249
REMARK  112  A    between atoms: _248  and  _251
REMARK  113  A    between atoms: _251  and  _252
REMARK  114  A    between atoms: _258  and  _260
REMARK  115  A    between atoms: _260  and  _261
REMARK  116  A    between atoms: _260  and  _263
REMARK  117  A    between atoms: _263  and  _264
REMARK  118  A    between atoms: _264  and  _265
REMARK  119  A    between atoms: _268  and  _270
REMARK  120  A    between atoms: _270  and  _271
REMARK  121  A    between atoms: _270  and  _273
REMARK  122  A    between atoms: _273  and  _274
REMARK  123  A    between atoms: _280  and  _282
REMARK  124  A    between atoms: _282  and  _283
REMARK  125  A    between atoms: _282  and  _285
REMARK  126  A    between atoms: _285  and  _286
REMARK  127  A    between atoms: _289  and  _291
REMARK  128  A    between atoms: _291  and  _292
REMARK  129  A    between atoms: _291  and  _294
REMARK  130  A    between atoms: _294  and  _295
REMARK  131  A    between atoms: _300  and  _302
REMARK  132  A    between atoms: _302  and  _303
REMARK  133  A    between atoms: _302  and  _305
REMARK  134  A    between atoms: _305  and  _306
REMARK  135  A    between atoms: _306  and  _307
REMARK  136  A    between atoms: _312  and  _314
REMARK  137  A    between atoms: _314  and  _315
REMARK  138  A    between atoms: _314  and  _317
REMARK  139  A    between atoms: _317  and  _318
REMARK  140  A    between atoms: _321  and  _323
REMARK  141  A    between atoms: _323  and  _324
REMARK  142  A    between atoms: _323  and  _326
REMARK  143  A    between atoms: _326  and  _327
REMARK  144  A    between atoms: _330  and  _332
REMARK  145  A    between atoms: _332  and  _333
REMARK  146  A    between atoms: _332  and  _335
REMARK  147  A    between atoms: _335  and  _336
REMARK  148  A    between atoms: _336  and  _337
REMARK  149  A    between atoms: _337  and  _338
REMARK  150  A    between atoms: _338  and  _339
REMARK  151  A    between atoms: _343  and  _345
REMARK  152  A    between atoms: _345  and  _346
REMARK  153  A    between atoms: _345  and  _348
REMARK  154  A    between atoms: _348  and  _349
REMARK  155  A    between atoms: _349  and  _350
REMARK  156  A    between atoms: _350  and  _351
REMARK  157  A    between atoms: _351  and  _352
REMARK  158  A    between atoms: _356  and  _358
REMARK  159  A    between atoms: _358  and  _359
REMARK  160  A    between atoms: _358  and  _361
REMARK  161  A    between atoms: _361  and  _362
REMARK  162  A    between atoms: _368  and  _370
REMARK  163  A    between atoms: _370  and  _371
REMARK  164  A    between atoms: _370  and  _373
REMARK  165  A    between atoms: _373  and  _374
REMARK  166  A    between atoms: _374  and  _375
REMARK  167  A    between atoms: _377  and  _379
REMARK  168  A    between atoms: _379  and  _380
REMARK  169  A    between atoms: _379  and  _382
REMARK  170  A    between atoms: _382  and  _383
REMARK  171  A    between atoms: _388  and  _390
REMARK  172  A    between atoms: _390  and  _391
REMARK  173  A    between atoms: _390  and  _393
REMARK  174  A    between atoms: _393  and  _394
REMARK  175  A    between atoms: _394  and  _395
REMARK  176  A    between atoms: _395  and  _396
REMARK  177  A    between atoms: _396  and  _397
REMARK  178  A    between atoms: _402  and  _403
REMARK  179  A    between atoms: _408  and  _410
REMARK  180  A    between atoms: _410  and  _411
REMARK  181  A    between atoms: _410  and  _413
REMARK  182  A    between atoms: _413  and  _414
REMARK  183  A    between atoms: _414  and  _415
REMARK  184  A    between atoms: _420  and  _422
REMARK  185  A    between atoms: _422  and  _423
REMARK  186  A    between atoms: _422  and  _425
REMARK  187  A    between atoms: _425  and  _426
REMARK  188  A    between atoms: _431  and  _433
REMARK  189  A    between atoms: _433  and  _434
REMARK  190  A    between atoms: _433  and  _436
REMARK  191  A    between atoms: _436  and  _437
REMARK  192  A    between atoms: _440  and  _442
REMARK  193  A    between atoms: _442  and  _443
REMARK  194  A    between atoms: _442  and  _445
REMARK  195  A    between atoms: _445  and  _446
REMARK  196  A    between atoms: _449  and  _451
REMARK  197  A    between atoms: _451  and  _452
REMARK  198  A    between atoms: _451  and  _454
REMARK  199  A    between atoms: _454  and  _455
REMARK  200  A    between atoms: _458  and  _460
REMARK  201  A    between atoms: _460  and  _461
REMARK  202  A    between atoms: _460  and  _463
REMARK  203  A    between atoms: _463  and  _464
REMARK  204  A    between atoms: _464  and  _465
REMARK  205  A    between atoms: _465  and  _466
REMARK  206  A    between atoms: _466  and  _467
REMARK  207  A    between atoms: _471  and  _473
REMARK  208  A    between atoms: _473  and  _474
REMARK  209  A    between atoms: _473  and  _476
REMARK  210  A    between atoms: _476  and  _477
REMARK  211  A    between atoms: _480  and  _482
REMARK  212  A    between atoms: _482  and  _483
REMARK  213  A    between atoms: _486  and  _488
REMARK  214  A    between atoms: _488  and  _489
REMARK  215  A    between atoms: _488  and  _491
REMARK  216  A    between atoms: _491  and  _492
REMARK  217  A    between atoms: _495  and  _497
REMARK  218  A    between atoms: _497  and  _498
REMARK  219  A    between atoms: _497  and  _500
REMARK  220  A    between atoms: _500  and  _501
REMARK  221  A    between atoms: _507  and  _509
REMARK  222  A    between atoms: _509  and  _510
REMARK  223  A    between atoms: _509  and  _512
REMARK  224  A    between atoms: _512  and  _513
REMARK  225  A    between atoms: _516  and  _518
REMARK  226  A    between atoms: _518  and  _519
REMARK  227  A    between atoms: _518  and  _521
REMARK  228  A    between atoms: _521  and  _522
REMARK  229  A    between atoms: _522  and  _523
REMARK  230  A    between atoms: _523  and  _524
REMARK  231  A    between atoms: _533  and  _535
REMARK  232  A    between atoms: _535  and  _536
REMARK  233  A    between atoms: _535  and  _538
REMARK  234  A    between atoms: _538  and  _539
REMARK                            x       y       z     vdW  Elec       q    Type
REMARK                         _______ _______ _______ _____ _____    ______ ____
ROOT
ATOM      1  O   HOH     1      -2.720  23.782  16.300  0.00  0.00    +0.000 OA
ENDROOT
TORSDOF 0
