REMARK  Name = ../refined-set-2016/1hn4/1hn4_pocket.pdb
REMARK  322 active torsions:
REMARK  status: ('A' for Active; 'I' for Inactive)
REMARK    1  A    between atoms: _1  and  _5
REMARK    2  A    between atoms: _5  and  _6
REMARK    3  A    between atoms: _8  and  _10
REMARK    4  A    between atoms: _10  and  _11
REMARK    5  A    between atoms: _10  and  _13
REMARK    6  A    between atoms: _13  and  _14
REMARK    7  A    between atoms: _17  and  _19
REMARK    8  A    between atoms: _19  and  _20
REMARK    9  A    between atoms: _19  and  _22
REMARK   10  A    between atoms: _22  and  _23
REMARK   11  A    between atoms: _25  and  _27
REMARK   12  A    between atoms: _27  and  _28
REMARK   13  A    between atoms: _27  and  _30
REMARK   14  A    between atoms: _30  and  _31
REMARK   15  A    between atoms: _33  and  _35
REMARK   16  A    between atoms: _35  and  _36
REMARK   17  A    between atoms: _35  and  _38
REMARK   18  A    between atoms: _38  and  _39
REMARK   19  A    between atoms: _39  and  _40
REMARK   20  A    between atoms: _40  and  _41
REMARK   21  A    between atoms: _50  and  _52
REMARK   22  A    between atoms: _52  and  _53
REMARK   23  A    between atoms: _56  and  _58
REMARK   24  A    between atoms: _58  and  _59
REMARK   25  A    between atoms: _58  and  _61
REMARK   26  A    between atoms: _61  and  _62
REMARK   27  A    between atoms: _65  and  _67
REMARK   28  A    between atoms: _67  and  _68
REMARK   29  A    between atoms: _67  and  _70
REMARK   30  A    between atoms: _70  and  _71
REMARK   31  A    between atoms: _81  and  _83
REMARK   32  A    between atoms: _83  and  _84
REMARK   33  A    between atoms: _83  and  _86
REMARK   34  A    between atoms: _86  and  _87
REMARK   35  A    between atoms: _87  and  _88
REMARK   36  A    between atoms: _93  and  _95
REMARK   37  A    between atoms: _95  and  _96
REMARK   38  A    between atoms: _95  and  _98
REMARK   39  A    between atoms: _98  and  _99
REMARK   40  A    between atoms: _105  and  _107
REMARK   41  A    between atoms: _107  and  _108
REMARK   42  A    between atoms: _107  and  _110
REMARK   43  A    between atoms: _110  and  _111
REMARK   44  A    between atoms: _111  and  _112
REMARK   45  A    between atoms: _112  and  _113
REMARK   46  A    between atoms: _122  and  _124
REMARK   47  A    between atoms: _124  and  _125
REMARK   48  A    between atoms: _124  and  _127
REMARK   49  A    between atoms: _127  and  _128
REMARK   50  A    between atoms: _130  and  _132
REMARK   51  A    between atoms: _132  and  _133
REMARK   52  A    between atoms: _132  and  _135
REMARK   53  A    between atoms: _135  and  _136
REMARK   54  A    between atoms: _136  and  _137
REMARK   55  A    between atoms: _139  and  _141
REMARK   56  A    between atoms: _141  and  _142
REMARK   57  A    between atoms: _141  and  _144
REMARK   58  A    between atoms: _144  and  _145
REMARK   59  A    between atoms: _148  and  _150
REMARK   60  A    between atoms: _150  and  _151
REMARK   61  A    between atoms: _150  and  _153
REMARK   62  A    between atoms: _153  and  _154
REMARK   63  A    between atoms: _154  and  _155
REMARK   64  A    between atoms: _155  and  _156
REMARK   65  A    between atoms: _156  and  _157
REMARK   66  A    between atoms: _161  and  _163
REMARK   67  A    between atoms: _163  and  _164
REMARK   68  A    between atoms: _163  and  _166
REMARK   69  A    between atoms: _166  and  _167
REMARK   70  A    between atoms: _173  and  _174
REMARK   71  A    between atoms: _179  and  _181
REMARK   72  A    between atoms: _181  and  _182
REMARK   73  A    between atoms: _181  and  _184
REMARK   74  A    between atoms: _184  and  _185
REMARK   75  A    between atoms: _188  and  _190
REMARK   76  A    between atoms: _190  and  _191
REMARK   77  A    between atoms: _190  and  _193
REMARK   78  A    between atoms: _193  and  _194
REMARK   79  A    between atoms: _194  and  _195
REMARK   80  A    between atoms: _197  and  _199
REMARK   81  A    between atoms: _199  and  _200
REMARK   82  A    between atoms: _199  and  _202
REMARK   83  A    between atoms: _202  and  _203
REMARK   84  A    between atoms: _206  and  _208
REMARK   85  A    between atoms: _208  and  _209
REMARK   86  A    between atoms: _208  and  _211
REMARK   87  A    between atoms: _211  and  _212
REMARK   88  A    between atoms: _218  and  _220
REMARK   89  A    between atoms: _220  and  _221
REMARK   90  A    between atoms: _220  and  _223
REMARK   91  A    between atoms: _223  and  _224
REMARK   92  A    between atoms: _229  and  _231
REMARK   93  A    between atoms: _231  and  _232
REMARK   94  A    between atoms: _231  and  _234
REMARK   95  A    between atoms: _234  and  _235
REMARK   96  A    between atoms: _240  and  _242
REMARK   97  A    between atoms: _242  and  _243
REMARK   98  A    between atoms: _242  and  _245
REMARK   99  A    between atoms: _245  and  _246
REMARK  100  A    between atoms: _251  and  _252
REMARK  101  A    between atoms: _254  and  _256
REMARK  102  A    between atoms: _256  and  _257
REMARK  103  A    between atoms: _256  and  _259
REMARK  104  A    between atoms: _261  and  _263
REMARK  105  A    between atoms: _263  and  _264
REMARK  106  A    between atoms: _263  and  _266
REMARK  107  A    between atoms: _266  and  _267
REMARK  108  A    between atoms: _272  and  _273
REMARK  109  A    between atoms: _277  and  _280
REMARK  110  A    between atoms: _280  and  _281
REMARK  111  A    between atoms: _281  and  _354
REMARK  112  A    between atoms: _285  and  _287
REMARK  113  A    between atoms: _287  and  _289
REMARK  114  A    between atoms: _289  and  _290
REMARK  115  A    between atoms: _289  and  _292
REMARK  116  A    between atoms: _292  and  _293
REMARK  117  A    between atoms: _296  and  _298
REMARK  118  A    between atoms: _298  and  _299
REMARK  119  A    between atoms: _301  and  _303
REMARK  120  A    between atoms: _303  and  _304
REMARK  121  A    between atoms: _306  and  _308
REMARK  122  A    between atoms: _308  and  _309
REMARK  123  A    between atoms: _308  and  _311
REMARK  124  A    between atoms: _311  and  _312
REMARK  125  A    between atoms: _315  and  _317
REMARK  126  A    between atoms: _317  and  _318
REMARK  127  A    between atoms: _317  and  _320
REMARK  128  A    between atoms: _320  and  _321
REMARK  129  A    between atoms: _324  and  _326
REMARK  130  A    between atoms: _326  and  _327
REMARK  131  A    between atoms: _326  and  _329
REMARK  132  A    between atoms: _329  and  _330
REMARK  133  A    between atoms: _330  and  _331
REMARK  134  A    between atoms: _331  and  _332
REMARK  135  A    between atoms: _341  and  _343
REMARK  136  A    between atoms: _343  and  _344
REMARK  137  A    between atoms: _343  and  _346
REMARK  138  A    between atoms: _348  and  _350
REMARK  139  A    between atoms: _350  and  _351
REMARK  140  A    between atoms: _350  and  _353
REMARK  141  A    between atoms: _353  and  _354
REMARK  142  A    between atoms: _355  and  _357
REMARK  143  A    between atoms: _357  and  _358
REMARK  144  A    between atoms: _357  and  _360
REMARK  145  A    between atoms: _360  and  _361
REMARK  146  A    between atoms: _361  and  _362
REMARK  147  A    between atoms: _365  and  _367
REMARK  148  A    between atoms: _367  and  _368
REMARK  149  A    between atoms: _367  and  _370
REMARK  150  A    between atoms: _370  and  _371
REMARK  151  A    between atoms: _374  and  _376
REMARK  152  A    between atoms: _376  and  _377
REMARK  153  A    between atoms: _376  and  _379
REMARK  154  A    between atoms: _379  and  _380
REMARK  155  A    between atoms: _385  and  _387
REMARK  156  A    between atoms: _387  and  _388
REMARK  157  A    between atoms: _387  and  _390
REMARK  158  A    between atoms: _390  and  _391
REMARK  159  A    between atoms: _394  and  _396
REMARK  160  A    between atoms: _396  and  _397
REMARK  161  A    between atoms: _396  and  _399
REMARK  162  A    between atoms: _399  and  _400
REMARK  163  A    between atoms: _405  and  _407
REMARK  164  A    between atoms: _407  and  _408
REMARK  165  A    between atoms: _407  and  _410
REMARK  166  A    between atoms: _410  and  _411
REMARK  167  A    between atoms: _411  and  _480
REMARK  168  A    between atoms: _412  and  _414
REMARK  169  A    between atoms: _414  and  _415
REMARK  170  A    between atoms: _414  and  _417
REMARK  171  A    between atoms: _417  and  _418
REMARK  172  A    between atoms: _423  and  _424
REMARK  173  A    between atoms: _426  and  _428
REMARK  174  A    between atoms: _428  and  _429
REMARK  175  A    between atoms: _428  and  _431
REMARK  176  A    between atoms: _431  and  _432
REMARK  177  A    between atoms: _432  and  _433
REMARK  178  A    between atoms: _433  and  _434
REMARK  179  A    between atoms: _443  and  _445
REMARK  180  A    between atoms: _445  and  _446
REMARK  181  A    between atoms: _445  and  _448
REMARK  182  A    between atoms: _448  and  _449
REMARK  183  A    between atoms: _452  and  _454
REMARK  184  A    between atoms: _454  and  _455
REMARK  185  A    between atoms: _454  and  _457
REMARK  186  A    between atoms: _457  and  _458
REMARK  187  A    between atoms: _458  and  _459
REMARK  188  A    between atoms: _459  and  _460
REMARK  189  A    between atoms: _460  and  _461
REMARK  190  A    between atoms: _465  and  _467
REMARK  191  A    between atoms: _467  and  _468
REMARK  192  A    between atoms: _467  and  _470
REMARK  193  A    between atoms: _470  and  _471
REMARK  194  A    between atoms: _474  and  _476
REMARK  195  A    between atoms: _476  and  _477
REMARK  196  A    between atoms: _476  and  _479
REMARK  197  A    between atoms: _479  and  _480
REMARK  198  A    between atoms: _481  and  _483
REMARK  199  A    between atoms: _483  and  _484
REMARK  200  A    between atoms: _483  and  _486
REMARK  201  A    between atoms: _486  and  _487
REMARK  202  A    between atoms: _490  and  _492
REMARK  203  A    between atoms: _492  and  _493
REMARK  204  A    between atoms: _496  and  _498
REMARK  205  A    between atoms: _498  and  _499
REMARK  206  A    between atoms: _502  and  _504
REMARK  207  A    between atoms: _504  and  _505
REMARK  208  A    between atoms: _504  and  _507
REMARK  209  A    between atoms: _507  and  _508
REMARK  210  A    between atoms: _514  and  _516
REMARK  211  A    between atoms: _516  and  _517
REMARK  212  A    between atoms: _516  and  _519
REMARK  213  A    between atoms: _519  and  _520
REMARK  214  A    between atoms: _522  and  _524
REMARK  215  A    between atoms: _524  and  _525
REMARK  216  A    between atoms: _524  and  _527
REMARK  217  A    between atoms: _527  and  _528
REMARK  218  A    between atoms: _530  and  _532
REMARK  219  A    between atoms: _532  and  _533
REMARK  220  A    between atoms: _532  and  _535
REMARK  221  A    between atoms: _535  and  _536
REMARK  222  A    between atoms: _536  and  _537
REMARK  223  A    between atoms: _537  and  _538
REMARK  224  A    between atoms: _547  and  _549
REMARK  225  A    between atoms: _549  and  _550
REMARK  226  A    between atoms: _553  and  _555
REMARK  227  A    between atoms: _555  and  _556
REMARK  228  A    between atoms: _555  and  _558
REMARK  229  A    between atoms: _558  and  _559
REMARK  230  A    between atoms: _562  and  _564
REMARK  231  A    between atoms: _564  and  _565
REMARK  232  A    between atoms: _564  and  _567
REMARK  233  A    between atoms: _567  and  _568
REMARK  234  A    between atoms: _578  and  _580
REMARK  235  A    between atoms: _580  and  _581
REMARK  236  A    between atoms: _580  and  _583
REMARK  237  A    between atoms: _583  and  _584
REMARK  238  A    between atoms: _584  and  _585
REMARK  239  A    between atoms: _590  and  _592
REMARK  240  A    between atoms: _592  and  _593
REMARK  241  A    between atoms: _592  and  _595
REMARK  242  A    between atoms: _595  and  _596
REMARK  243  A    between atoms: _602  and  _604
REMARK  244  A    between atoms: _604  and  _605
REMARK  245  A    between atoms: _604  and  _607
REMARK  246  A    between atoms: _607  and  _608
REMARK  247  A    between atoms: _608  and  _609
REMARK  248  A    between atoms: _609  and  _610
REMARK  249  A    between atoms: _619  and  _621
REMARK  250  A    between atoms: _621  and  _622
REMARK  251  A    between atoms: _621  and  _624
REMARK  252  A    between atoms: _624  and  _625
REMARK  253  A    between atoms: _627  and  _629
REMARK  254  A    between atoms: _629  and  _630
REMARK  255  A    between atoms: _629  and  _632
REMARK  256  A    between atoms: _632  and  _633
REMARK  257  A    between atoms: _633  and  _634
REMARK  258  A    between atoms: _636  and  _638
REMARK  259  A    between atoms: _638  and  _639
REMARK  260  A    between atoms: _638  and  _641
REMARK  261  A    between atoms: _641  and  _642
REMARK  262  A    between atoms: _645  and  _647
REMARK  263  A    between atoms: _647  and  _648
REMARK  264  A    between atoms: _647  and  _650
REMARK  265  A    between atoms: _650  and  _651
REMARK  266  A    between atoms: _651  and  _652
REMARK  267  A    between atoms: _652  and  _653
REMARK  268  A    between atoms: _653  and  _654
REMARK  269  A    between atoms: _658  and  _660
REMARK  270  A    between atoms: _660  and  _661
REMARK  271  A    between atoms: _660  and  _663
REMARK  272  A    between atoms: _663  and  _664
REMARK  273  A    between atoms: _670  and  _671
REMARK  274  A    between atoms: _676  and  _678
REMARK  275  A    between atoms: _678  and  _679
REMARK  276  A    between atoms: _678  and  _681
REMARK  277  A    between atoms: _681  and  _682
REMARK  278  A    between atoms: _685  and  _687
REMARK  279  A    between atoms: _687  and  _688
REMARK  280  A    between atoms: _687  and  _690
REMARK  281  A    between atoms: _690  and  _691
REMARK  282  A    between atoms: _691  and  _692
REMARK  283  A    between atoms: _694  and  _696
REMARK  284  A    between atoms: _696  and  _697
REMARK  285  A    between atoms: _696  and  _699
REMARK  286  A    between atoms: _699  and  _700
REMARK  287  A    between atoms: _703  and  _705
REMARK  288  A    between atoms: _705  and  _706
REMARK  289  A    between atoms: _705  and  _708
REMARK  290  A    between atoms: _708  and  _709
REMARK  291  A    between atoms: _715  and  _717
REMARK  292  A    between atoms: _717  and  _718
REMARK  293  A    between atoms: _717  and  _720
REMARK  294  A    between atoms: _720  and  _721
REMARK  295  A    between atoms: _726  and  _728
REMARK  296  A    between atoms: _728  and  _729
REMARK  297  A    between atoms: _728  and  _731
REMARK  298  A    between atoms: _731  and  _732
REMARK  299  A    between atoms: _737  and  _739
REMARK  300  A    between atoms: _739  and  _740
REMARK  301  A    between atoms: _739  and  _742
REMARK  302  A    between atoms: _742  and  _743
REMARK  303  A    between atoms: _743  and  _755
REMARK  304  A    between atoms: _744  and  _746
REMARK  305  A    between atoms: _746  and  _747
REMARK  306  A    between atoms: _749  and  _751
REMARK  307  A    between atoms: _751  and  _752
REMARK  308  A    between atoms: _751  and  _754
REMARK  309  A    between atoms: _754  and  _755
REMARK  310  A    between atoms: _756  and  _758
REMARK  311  A    between atoms: _758  and  _759
REMARK  312  A    between atoms: _758  and  _761
REMARK  313  A    between atoms: _761  and  _762
REMARK  314  A    between atoms: _767  and  _769
REMARK  315  A    between atoms: _769  and  _770
REMARK  316  A    between atoms: _769  and  _772
REMARK  317  A    between atoms: _772  and  _773
REMARK  318  A    between atoms: _778  and  _779
REMARK  319  A    between atoms: _781  and  _783
REMARK  320  A    between atoms: _783  and  _784
REMARK  321  A    between atoms: _783  and  _786
REMARK  322  A    between atoms: _786  and  _787
REMARK                            x       y       z     vdW  Elec       q    Type
REMARK                         _______ _______ _______ _____ _____    ______ ____
ROOT
ATOM      1  C   TRP A   8      18.278  23.146  17.304  0.00  0.00    +0.241 C 
ATOM      2  O   TRP A   8      17.139  23.614  17.254  0.00  0.00    -0.273 OA
ATOM      3  N   GLN A   9      19.292  23.644  16.605  0.00  0.00    -0.297 N 
ATOM      4  H   GLN A   9      20.234  23.209  16.679  0.00  0.00    +0.150 HD
ENDROOT
BRANCH   1   5
ATOM      5  CA  TRP A   8      18.584  21.934  18.174  0.00  0.00    +0.153 C 
BRANCH   5   7
ATOM      6  C   LEU A   7      19.200  20.421  16.394  0.00  0.00    +0.241 C 
ATOM      7  N   TRP A   8      19.531  21.048  17.517  0.00  0.00    -0.297 N 
ATOM      8  H   TRP A   8      20.475  20.904  17.930  0.00  0.00    +0.150 HD
ATOM      9  O   LEU A   7      18.105  20.553  15.860  0.00  0.00    -0.273 OA
BRANCH   6  10
ATOM     10  CA  LEU A   7      20.256  19.509  15.794  0.00  0.00    +0.149 C 
BRANCH  10  12
ATOM     11  C   ALA A   6      21.863  21.277  15.395  0.00  0.00    +0.241 C 
ATOM     12  N   LEU A   7      21.570  20.110  15.960  0.00  0.00    -0.297 N 
ATOM     13  H   LEU A   7      22.290  19.620  16.528  0.00  0.00    +0.150 HD
ATOM     14  O   ALA A   6      21.067  21.896  14.684  0.00  0.00    -0.273 OA
BRANCH  11  15
ATOM     15  CA  ALA A   6      23.263  21.820  15.659  0.00  0.00    +0.149 C 
ATOM     16  CB  ALA A   6      24.280  21.094  14.788  0.00  0.00    +0.031 C 
BRANCH  15  19
ATOM     17  C   ARG A   5      22.984  22.340  18.023  0.00  0.00    +0.241 C 
ATOM     18  O   ARG A   5      22.097  23.160  17.794  0.00  0.00    -0.273 OA
ATOM     19  N   ALA A   6      23.604  21.654  17.068  0.00  0.00    -0.297 N 
ATOM     20  H   ALA A   6      24.352  20.981  17.332  0.00  0.00    +0.150 HD
BRANCH  17  21
ATOM     21  CA  ARG A   5      23.440  22.063  19.452  0.00  0.00    +0.149 C 
BRANCH  21  23
ATOM     22  C   SER A   4      22.707  19.744  19.515  0.00  0.00    +0.243 C 
ATOM     23  N   ARG A   5      23.682  20.637  19.647  0.00  0.00    -0.297 N 
ATOM     24  H   ARG A   5      24.639  20.313  19.895  0.00  0.00    +0.150 HD
ATOM     25  O   SER A   4      21.552  20.056  19.231  0.00  0.00    -0.273 OA
BRANCH  22  26
ATOM     26  CA  SER A   4      23.095  18.285  19.732  0.00  0.00    +0.178 C 
BRANCH  26  28
ATOM     27  C   SER A   3      24.619  18.047  17.846  0.00  0.00    +0.243 C 
ATOM     28  N   SER A   4      24.411  18.030  19.159  0.00  0.00    -0.295 N 
ATOM     29  H   SER A   4      25.209  17.829  19.795  0.00  0.00    +0.150 HD
ATOM     30  O   SER A   3      23.729  18.261  17.022  0.00  0.00    -0.273 OA
BRANCH  27  31
ATOM     31  CA  SER A   3      26.051  17.785  17.401  0.00  0.00    +0.178 C 
BRANCH  31  34
ATOM     32  C   ILE A   2      26.640  16.418  15.486  0.00  0.00    +0.241 C 
ATOM     33  O   ILE A   2      26.978  15.483  16.213  0.00  0.00    -0.273 OA
ATOM     34  N   SER A   3      26.170  17.565  15.965  0.00  0.00    -0.295 N 
ATOM     35  H   SER A   3      25.883  18.316  15.306  0.00  0.00    +0.150 HD
BRANCH  32  36
ATOM     36  CA  ILE A   2      26.744  16.297  13.969  0.00  0.00    +0.148 C 
BRANCH  36  38
ATOM     37  C   GLY A   1      28.859  15.782  12.869  0.00  0.00    +0.201 C 
ATOM     38  N   ILE A   2      27.839  15.395  13.629  0.00  0.00    -0.300 N 
ATOM     39  H   ILE A   2      27.821  14.420  13.992  0.00  0.00    +0.150 HD
ATOM     40  O   GLY A   1      28.954  16.918  12.403  0.00  0.00    -0.277 OA
BRANCH  37  41
ATOM     41  CA  GLY A   1      29.928  14.743  12.594  0.00  0.00    +0.001 C 
BRANCH  41  42
ATOM     42  N   GLY A   1      29.384  13.361  12.529  0.00  0.00    +0.386 N 
ATOM     43  H1  GLY A   1      28.935  13.123  13.436  0.00  0.00    -0.089 HD
ATOM     44  H2  GLY A   1      30.159  12.693  12.339  0.00  0.00    -0.089 HD
ATOM     45  H3  GLY A   1      28.679  13.303  11.766  0.00  0.00    -0.089 HD
ENDBRANCH  41  42
ENDBRANCH  37  41
ENDBRANCH  36  38
BRANCH  36  46
ATOM     46  CB  ILE A   2      25.408  15.775  13.402  0.00  0.00    +0.027 C 
ATOM     47  CG2 ILE A   2      25.075  14.423  14.014  0.00  0.00    +0.002 C 
BRANCH  46  48
ATOM     48  CG1 ILE A   2      24.288  16.776  13.686  0.00  0.00    +0.002 C 
ATOM     49  CD1 ILE A   2      22.964  16.369  13.089  0.00  0.00    +0.000 C 
ENDBRANCH  46  48
ENDBRANCH  36  46
ENDBRANCH  32  36
ENDBRANCH  31  34
BRANCH  31  50
ATOM     50  CB  SER A   3      26.919  18.968  17.821  0.00  0.00    +0.166 C 
BRANCH  50  51
ATOM     51  OG  SER A   3      26.370  20.183  17.340  0.00  0.00    -0.380 OA
ATOM     52  H   SER A   3      26.945  20.938  17.622  0.00  0.00    +0.211 HD
ENDBRANCH  50  51
ENDBRANCH  31  50
ENDBRANCH  27  31
ENDBRANCH  26  28
BRANCH  26  53
ATOM     53  CB  SER A   4      23.101  17.963  21.228  0.00  0.00    +0.166 C 
BRANCH  53  54
ATOM     54  OG  SER A   4      23.301  16.576  21.445  0.00  0.00    -0.380 OA
ATOM     55  H   SER A   4      23.301  16.392  22.418  0.00  0.00    +0.211 HD
ENDBRANCH  53  54
ENDBRANCH  26  53
ENDBRANCH  22  26
ENDBRANCH  21  23
BRANCH  21  56
ATOM     56  CB  ARG A   5      24.713  22.859  19.739  0.00  0.00    +0.033 C 
BRANCH  56  57
ATOM     57  CG  ARG A   5      25.200  22.773  21.172  0.00  0.00    +0.045 C 
BRANCH  57  58
ATOM     58  CD  ARG A   5      26.488  23.556  21.330  0.00  0.00    +0.174 C 
BRANCH  58  59
ATOM     59  NE  ARG A   5      26.300  24.967  21.008  0.00  0.00    -0.265 N 
ATOM     60  HE  ARG A   5      25.327  25.313  20.887  0.00  0.00    +0.259 HD
ATOM     61  CZ  ARG A   5      27.293  25.838  20.859  0.00  0.00    +0.342 C 
ATOM     62  NH2 ARG A   5      28.551  25.443  21.001  0.00  0.00    -0.292 N 
ATOM     63 HH21 ARG A   5      28.762  24.450  21.229  0.00  0.00    +0.255 HD
ATOM     64 HH22 ARG A   5      29.327  26.126  20.884  0.00  0.00    +0.255 HD
ATOM     65  NH1 ARG A   5      27.027  27.105  20.574  0.00  0.00    -0.292 N 
ATOM     66 HH11 ARG A   5      26.041  27.418  20.467  0.00  0.00    +0.255 HD
ATOM     67 HH12 ARG A   5      27.804  27.786  20.458  0.00  0.00    +0.255 HD
ENDBRANCH  58  59
ENDBRANCH  57  58
ENDBRANCH  56  57
ENDBRANCH  21  56
ENDBRANCH  17  21
ENDBRANCH  15  19
ENDBRANCH  11  15
ENDBRANCH  10  12
BRANCH  10  68
ATOM     68  CB  LEU A   7      20.193  18.149  16.487  0.00  0.00    +0.029 C 
BRANCH  68  69
ATOM     69  CG  LEU A   7      20.811  16.964  15.754  0.00  0.00    +0.002 C 
ATOM     70  CD2 LEU A   7      20.771  15.739  16.646  0.00  0.00    +0.000 C 
ATOM     71  CD1 LEU A   7      20.041  16.716  14.466  0.00  0.00    +0.000 C 
ENDBRANCH  68  69
ENDBRANCH  10  68
ENDBRANCH   6  10
ENDBRANCH   5   7
BRANCH   5  72
ATOM     72  CB  TRP A   8      19.136  22.368  19.535  0.00  0.00    +0.057 C 
BRANCH  72  73
ATOM     73  CG  TRP A   8      18.122  23.059  20.374  0.00  0.00    -0.002 A 
ATOM     74  CD2 TRP A   8      17.087  22.439  21.146  0.00  0.00    +0.013 A 
ATOM     75  CE2 TRP A   8      16.315  23.477  21.714  0.00  0.00    +0.056 A 
ATOM     76  CZ2 TRP A   8      15.205  23.227  22.534  0.00  0.00    +0.017 A 
ATOM     77  CH2 TRP A   8      14.880  21.917  22.776  0.00  0.00    +0.001 A 
ATOM     78  CZ3 TRP A   8      15.628  20.860  22.227  0.00  0.00    +0.000 A 
ATOM     79  NE1 TRP A   8      16.863  24.663  21.304  0.00  0.00    -0.352 N 
ATOM     80  HE1 TRP A   8      16.514  25.609  21.559  0.00  0.00    +0.166 HD
ATOM     81  CE3 TRP A   8      16.733  21.109  21.411  0.00  0.00    +0.001 A 
ATOM     82  CD1 TRP A   8      17.946  24.403  20.503  0.00  0.00    +0.068 A 
ENDBRANCH  72  73
ENDBRANCH   5  72
ENDBRANCH   1   5
BRANCH   3  83
ATOM     83  CA  GLN A   9      19.095  24.793  15.737  0.00  0.00    +0.149 C 
BRANCH  83  84
ATOM     84  C   GLN A   9      18.240  24.402  14.536  0.00  0.00    +0.241 C 
ATOM     85  O   GLN A   9      17.368  25.159  14.109  0.00  0.00    -0.273 OA
ATOM     86  N   PHE A  10      18.491  23.214  13.994  0.00  0.00    -0.297 N 
ATOM     87  H   PHE A  10      19.249  22.621  14.388  0.00  0.00    +0.150 HD
BRANCH  86  88
ATOM     88  CA  PHE A  10      17.718  22.730  12.855  0.00  0.00    +0.153 C 
BRANCH  88  89
ATOM     89  C   PHE A  10      16.268  22.578  13.302  0.00  0.00    +0.241 C 
ATOM     90  N   ARG A  11      16.079  22.041  14.501  0.00  0.00    -0.297 N 
ATOM     91  H   ARG A  11      16.903  21.731  15.055  0.00  0.00    +0.150 HD
ATOM     92  O   PHE A  10      15.340  22.946  12.584  0.00  0.00    -0.273 OA
BRANCH  90  93
ATOM     93  CA  ARG A  11      14.747  21.877  15.055  0.00  0.00    +0.149 C 
BRANCH  93  94
ATOM     94  C   ARG A  11      14.061  23.235  15.119  0.00  0.00    +0.241 C 
ATOM     95  N   SER A  12      14.815  24.249  15.536  0.00  0.00    -0.295 N 
ATOM     96  H   SER A  12      15.810  24.071  15.781  0.00  0.00    +0.150 HD
ATOM     97  O   ARG A  11      12.883  23.359  14.797  0.00  0.00    -0.273 OA
BRANCH  95  98
ATOM     98  CA  SER A  12      14.287  25.601  15.659  0.00  0.00    +0.178 C 
BRANCH  98  99
ATOM     99  C   SER A  12      13.798  26.111  14.311  0.00  0.00    +0.243 C 
ATOM    100  O   SER A  12      12.725  26.710  14.220  0.00  0.00    -0.273 OA
ATOM    101  N   MET A  13      14.584  25.864  13.266  0.00  0.00    -0.297 N 
ATOM    102  H   MET A  13      15.482  25.359  13.409  0.00  0.00    +0.150 HD
BRANCH 101 103
ATOM    103  CA  MET A  13      14.205  26.291  11.923  0.00  0.00    +0.149 C 
BRANCH 103 104
ATOM    104  C   MET A  13      12.916  25.642  11.465  0.00  0.00    +0.241 C 
ATOM    105  N   ILE A  14      12.758  24.359  11.768  0.00  0.00    -0.297 N 
ATOM    106  H   ILE A  14      13.504  23.857  12.290  0.00  0.00    +0.150 HD
ATOM    107  O   MET A  13      12.088  26.281  10.820  0.00  0.00    -0.273 OA
BRANCH 105 108
ATOM    108  CA  ILE A  14      11.550  23.649  11.376  0.00  0.00    +0.149 C 
BRANCH 108 109
ATOM    109  C   ILE A  14      10.353  24.258  12.099  0.00  0.00    +0.241 C 
ATOM    110  N   LYS A  15      10.537  24.588  13.375  0.00  0.00    -0.298 N 
ATOM    111  H   LYS A  15      11.460  24.405  13.818  0.00  0.00    +0.150 HD
ATOM    112  O   ILE A  14       9.283  24.425  11.513  0.00  0.00    -0.273 OA
BRANCH 110 113
ATOM    113  CA  LYS A  15       9.476  25.201  14.170  0.00  0.00    +0.137 C 
BRANCH 113 114
ATOM    114  C   LYS A  15       9.132  26.560  13.565  0.00  0.00    +0.227 C 
ATOM    115  O   LYS A  15       7.982  27.002  13.614  0.00  0.00    -0.286 OA
ENDBRANCH 113 114
BRANCH 113 116
ATOM    116  CB  LYS A  15       9.943  25.391  15.615  0.00  0.00    +0.028 C 
BRANCH 116 117
ATOM    117  CG  LYS A  15      10.298  24.099  16.335  0.00  0.00    -0.000 C 
BRANCH 117 118
ATOM    118  CD  LYS A  15       9.066  23.373  16.840  0.00  0.00    -0.024 C 
BRANCH 118 119
ATOM    119  CE  LYS A  15       8.448  24.091  18.032  0.00  0.00    -0.086 C 
BRANCH 119 120
ATOM    120  NZ  LYS A  15       7.235  23.385  18.534  0.00  0.00    +0.380 N 
ATOM    121  HZ1 LYS A  15       6.844  23.905  19.345  0.00  0.00    -0.089 HD
ATOM    122  HZ2 LYS A  15       7.493  22.422  18.830  0.00  0.00    -0.089 HD
ATOM    123  HZ3 LYS A  15       6.525  23.337  17.776  0.00  0.00    -0.089 HD
ENDBRANCH 119 120
ENDBRANCH 118 119
ENDBRANCH 117 118
ENDBRANCH 116 117
ENDBRANCH 113 116
ENDBRANCH 110 113
ENDBRANCH 108 109
BRANCH 108 124
ATOM    124  CB  ILE A  14      11.665  22.151  11.714  0.00  0.00    +0.027 C 
ATOM    125  CG2 ILE A  14      10.352  21.443  11.418  0.00  0.00    +0.002 C 
BRANCH 124 126
ATOM    126  CG1 ILE A  14      12.796  21.528  10.893  0.00  0.00    +0.002 C 
ATOM    127  CD1 ILE A  14      13.192  20.141  11.360  0.00  0.00    +0.000 C 
ENDBRANCH 124 126
ENDBRANCH 108 124
ENDBRANCH 105 108
ENDBRANCH 103 104
BRANCH 103 128
ATOM    128  CB  MET A  13      15.287  25.942  10.911  0.00  0.00    +0.041 C 
BRANCH 128 129
ATOM    129  CG  MET A  13      16.433  26.902  10.861  0.00  0.00    +0.060 C 
BRANCH 129 130
ATOM    130  SD  MET A  13      17.299  26.631   9.305  0.00  0.00    -0.139 S 
ATOM    131  CE  MET A  13      18.666  27.766   9.483  0.00  0.00    +0.069 C 
ENDBRANCH 129 130
ENDBRANCH 128 129
ENDBRANCH 103 128
ENDBRANCH 101 103
ENDBRANCH  98  99
BRANCH  98 132
ATOM    132  CB  SER A  12      15.364  26.532  16.219  0.00  0.00    +0.166 C 
BRANCH 132 133
ATOM    133  OG  SER A  12      14.876  27.855  16.348  0.00  0.00    -0.380 OA
ATOM    134  H   SER A  12      15.591  28.435  16.711  0.00  0.00    +0.211 HD
ENDBRANCH 132 133
ENDBRANCH  98 132
ENDBRANCH  95  98
ENDBRANCH  93  94
BRANCH  93 135
ATOM    135  CB  ARG A  11      14.824  21.293  16.469  0.00  0.00    +0.033 C 
BRANCH 135 136
ATOM    136  CG  ARG A  11      13.486  21.253  17.186  0.00  0.00    +0.045 C 
BRANCH 136 137
ATOM    137  CD  ARG A  11      13.629  20.720  18.605  0.00  0.00    +0.174 C 
BRANCH 137 138
ATOM    138  NE  ARG A  11      12.331  20.611  19.260  0.00  0.00    -0.265 N 
ATOM    139  CZ  ARG A  11      11.733  21.598  19.920  0.00  0.00    +0.342 C 
ATOM    140  NH2 ARG A  11      10.536  21.404  20.454  0.00  0.00    -0.292 N 
ATOM    141 HH21 ARG A  11      10.066  22.175  20.971  0.00  0.00    +0.255 HD
ATOM    142 HH22 ARG A  11      10.066  20.481  20.356  0.00  0.00    +0.255 HD
ATOM    143  NH1 ARG A  11      12.319  22.787  20.030  0.00  0.00    -0.292 N 
ATOM    144 HH11 ARG A  11      11.845  23.554  20.548  0.00  0.00    +0.255 HD
ATOM    145 HH12 ARG A  11      13.251  22.949  19.598  0.00  0.00    +0.255 HD
ATOM    146  HE  ARG A  11      11.838  19.697  19.207  0.00  0.00    +0.259 HD
ENDBRANCH 137 138
ENDBRANCH 136 137
ENDBRANCH 135 136
ENDBRANCH  93 135
ENDBRANCH  90  93
ENDBRANCH  88  89
BRANCH  88 147
ATOM    147  CB  PHE A  10      18.283  21.392  12.370  0.00  0.00    +0.055 C 
BRANCH 147 148
ATOM    148  CG  PHE A  10      17.532  20.795  11.214  0.00  0.00    -0.020 A 
ATOM    149  CD2 PHE A  10      17.263  19.429  11.185  0.00  0.00    -0.004 A 
ATOM    150  CE2 PHE A  10      16.588  18.859  10.109  0.00  0.00    -0.000 A 
ATOM    151  CZ  PHE A  10      16.174  19.662   9.045  0.00  0.00    -0.000 A 
ATOM    152  CE1 PHE A  10      16.438  21.029   9.061  0.00  0.00    -0.000 A 
ATOM    153  CD1 PHE A  10      17.116  21.589  10.144  0.00  0.00    -0.004 A 
ENDBRANCH 147 148
ENDBRANCH  88 147
ENDBRANCH  86  88
ENDBRANCH  83  84
BRANCH  83 154
ATOM    154  CB  GLN A   9      20.439  25.344  15.264  0.00  0.00    +0.039 C 
BRANCH 154 155
ATOM    155  CG  GLN A   9      20.404  26.837  15.052  0.00  0.00    +0.087 C 
BRANCH 155 156
ATOM    156  CD  GLN A   9      19.935  27.569  16.296  0.00  0.00    +0.219 C 
ATOM    157  OE1 GLN A   9      20.519  27.431  17.369  0.00  0.00    -0.275 OA
ATOM    158  NE2 GLN A   9      18.876  28.344  16.159  0.00  0.00    -0.329 N 
ATOM    159 HE21 GLN A   9      18.505  28.867  16.978  0.00  0.00    +0.145 HD
ATOM    160 HE22 GLN A   9      18.412  28.432  15.232  0.00  0.00    +0.145 HD
ENDBRANCH 155 156
ENDBRANCH 154 155
ENDBRANCH  83 154
ENDBRANCH   3  83
TORSDOF 65
REMARK  Name = ../refined-set-2016/1hn4/1hn4_pocket.pdb
REMARK  322 active torsions:
REMARK  status: ('A' for Active; 'I' for Inactive)
REMARK    1  A    between atoms: _1  and  _5
REMARK    2  A    between atoms: _5  and  _6
REMARK    3  A    between atoms: _8  and  _10
REMARK    4  A    between atoms: _10  and  _11
REMARK    5  A    between atoms: _10  and  _13
REMARK    6  A    between atoms: _13  and  _14
REMARK    7  A    between atoms: _17  and  _19
REMARK    8  A    between atoms: _19  and  _20
REMARK    9  A    between atoms: _19  and  _22
REMARK   10  A    between atoms: _22  and  _23
REMARK   11  A    between atoms: _25  and  _27
REMARK   12  A    between atoms: _27  and  _28
REMARK   13  A    between atoms: _27  and  _30
REMARK   14  A    between atoms: _30  and  _31
REMARK   15  A    between atoms: _33  and  _35
REMARK   16  A    between atoms: _35  and  _36
REMARK   17  A    between atoms: _35  and  _38
REMARK   18  A    between atoms: _38  and  _39
REMARK   19  A    between atoms: _39  and  _40
REMARK   20  A    between atoms: _40  and  _41
REMARK   21  A    between atoms: _50  and  _52
REMARK   22  A    between atoms: _52  and  _53
REMARK   23  A    between atoms: _56  and  _58
REMARK   24  A    between atoms: _58  and  _59
REMARK   25  A    between atoms: _58  and  _61
REMARK   26  A    between atoms: _61  and  _62
REMARK   27  A    between atoms: _65  and  _67
REMARK   28  A    between atoms: _67  and  _68
REMARK   29  A    between atoms: _67  and  _70
REMARK   30  A    between atoms: _70  and  _71
REMARK   31  A    between atoms: _81  and  _83
REMARK   32  A    between atoms: _83  and  _84
REMARK   33  A    between atoms: _83  and  _86
REMARK   34  A    between atoms: _86  and  _87
REMARK   35  A    between atoms: _87  and  _88
REMARK   36  A    between atoms: _93  and  _95
REMARK   37  A    between atoms: _95  and  _96
REMARK   38  A    between atoms: _95  and  _98
REMARK   39  A    between atoms: _98  and  _99
REMARK   40  A    between atoms: _105  and  _107
REMARK   41  A    between atoms: _107  and  _108
REMARK   42  A    between atoms: _107  and  _110
REMARK   43  A    between atoms: _110  and  _111
REMARK   44  A    between atoms: _111  and  _112
REMARK   45  A    between atoms: _112  and  _113
REMARK   46  A    between atoms: _122  and  _124
REMARK   47  A    between atoms: _124  and  _125
REMARK   48  A    between atoms: _124  and  _127
REMARK   49  A    between atoms: _127  and  _128
REMARK   50  A    between atoms: _130  and  _132
REMARK   51  A    between atoms: _132  and  _133
REMARK   52  A    between atoms: _132  and  _135
REMARK   53  A    between atoms: _135  and  _136
REMARK   54  A    between atoms: _136  and  _137
REMARK   55  A    between atoms: _139  and  _141
REMARK   56  A    between atoms: _141  and  _142
REMARK   57  A    between atoms: _141  and  _144
REMARK   58  A    between atoms: _144  and  _145
REMARK   59  A    between atoms: _148  and  _150
REMARK   60  A    between atoms: _150  and  _151
REMARK   61  A    between atoms: _150  and  _153
REMARK   62  A    between atoms: _153  and  _154
REMARK   63  A    between atoms: _154  and  _155
REMARK   64  A    between atoms: _155  and  _156
REMARK   65  A    between atoms: _156  and  _157
REMARK   66  A    between atoms: _161  and  _163
REMARK   67  A    between atoms: _163  and  _164
REMARK   68  A    between atoms: _163  and  _166
REMARK   69  A    between atoms: _166  and  _167
REMARK   70  A    between atoms: _173  and  _174
REMARK   71  A    between atoms: _179  and  _181
REMARK   72  A    between atoms: _181  and  _182
REMARK   73  A    between atoms: _181  and  _184
REMARK   74  A    between atoms: _184  and  _185
REMARK   75  A    between atoms: _188  and  _190
REMARK   76  A    between atoms: _190  and  _191
REMARK   77  A    between atoms: _190  and  _193
REMARK   78  A    between atoms: _193  and  _194
REMARK   79  A    between atoms: _194  and  _195
REMARK   80  A    between atoms: _197  and  _199
REMARK   81  A    between atoms: _199  and  _200
REMARK   82  A    between atoms: _199  and  _202
REMARK   83  A    between atoms: _202  and  _203
REMARK   84  A    between atoms: _206  and  _208
REMARK   85  A    between atoms: _208  and  _209
REMARK   86  A    between atoms: _208  and  _211
REMARK   87  A    between atoms: _211  and  _212
REMARK   88  A    between atoms: _218  and  _220
REMARK   89  A    between atoms: _220  and  _221
REMARK   90  A    between atoms: _220  and  _223
REMARK   91  A    between atoms: _223  and  _224
REMARK   92  A    between atoms: _229  and  _231
REMARK   93  A    between atoms: _231  and  _232
REMARK   94  A    between atoms: _231  and  _234
REMARK   95  A    between atoms: _234  and  _235
REMARK   96  A    between atoms: _240  and  _242
REMARK   97  A    between atoms: _242  and  _243
REMARK   98  A    between atoms: _242  and  _245
REMARK   99  A    between atoms: _245  and  _246
REMARK  100  A    between atoms: _251  and  _252
REMARK  101  A    between atoms: _254  and  _256
REMARK  102  A    between atoms: _256  and  _257
REMARK  103  A    between atoms: _256  and  _259
REMARK  104  A    between atoms: _261  and  _263
REMARK  105  A    between atoms: _263  and  _264
REMARK  106  A    between atoms: _263  and  _266
REMARK  107  A    between atoms: _266  and  _267
REMARK  108  A    between atoms: _272  and  _273
REMARK  109  A    between atoms: _277  and  _280
REMARK  110  A    between atoms: _280  and  _281
REMARK  111  A    between atoms: _281  and  _354
REMARK  112  A    between atoms: _285  and  _287
REMARK  113  A    between atoms: _287  and  _289
REMARK  114  A    between atoms: _289  and  _290
REMARK  115  A    between atoms: _289  and  _292
REMARK  116  A    between atoms: _292  and  _293
REMARK  117  A    between atoms: _296  and  _298
REMARK  118  A    between atoms: _298  and  _299
REMARK  119  A    between atoms: _301  and  _303
REMARK  120  A    between atoms: _303  and  _304
REMARK  121  A    between atoms: _306  and  _308
REMARK  122  A    between atoms: _308  and  _309
REMARK  123  A    between atoms: _308  and  _311
REMARK  124  A    between atoms: _311  and  _312
REMARK  125  A    between atoms: _315  and  _317
REMARK  126  A    between atoms: _317  and  _318
REMARK  127  A    between atoms: _317  and  _320
REMARK  128  A    between atoms: _320  and  _321
REMARK  129  A    between atoms: _324  and  _326
REMARK  130  A    between atoms: _326  and  _327
REMARK  131  A    between atoms: _326  and  _329
REMARK  132  A    between atoms: _329  and  _330
REMARK  133  A    between atoms: _330  and  _331
REMARK  134  A    between atoms: _331  and  _332
REMARK  135  A    between atoms: _341  and  _343
REMARK  136  A    between atoms: _343  and  _344
REMARK  137  A    between atoms: _343  and  _346
REMARK  138  A    between atoms: _348  and  _350
REMARK  139  A    between atoms: _350  and  _351
REMARK  140  A    between atoms: _350  and  _353
REMARK  141  A    between atoms: _353  and  _354
REMARK  142  A    between atoms: _355  and  _357
REMARK  143  A    between atoms: _357  and  _358
REMARK  144  A    between atoms: _357  and  _360
REMARK  145  A    between atoms: _360  and  _361
REMARK  146  A    between atoms: _361  and  _362
REMARK  147  A    between atoms: _365  and  _367
REMARK  148  A    between atoms: _367  and  _368
REMARK  149  A    between atoms: _367  and  _370
REMARK  150  A    between atoms: _370  and  _371
REMARK  151  A    between atoms: _374  and  _376
REMARK  152  A    between atoms: _376  and  _377
REMARK  153  A    between atoms: _376  and  _379
REMARK  154  A    between atoms: _379  and  _380
REMARK  155  A    between atoms: _385  and  _387
REMARK  156  A    between atoms: _387  and  _388
REMARK  157  A    between atoms: _387  and  _390
REMARK  158  A    between atoms: _390  and  _391
REMARK  159  A    between atoms: _394  and  _396
REMARK  160  A    between atoms: _396  and  _397
REMARK  161  A    between atoms: _396  and  _399
REMARK  162  A    between atoms: _399  and  _400
REMARK  163  A    between atoms: _405  and  _407
REMARK  164  A    between atoms: _407  and  _408
REMARK  165  A    between atoms: _407  and  _410
REMARK  166  A    between atoms: _410  and  _411
REMARK  167  A    between atoms: _411  and  _480
REMARK  168  A    between atoms: _412  and  _414
REMARK  169  A    between atoms: _414  and  _415
REMARK  170  A    between atoms: _414  and  _417
REMARK  171  A    between atoms: _417  and  _418
REMARK  172  A    between atoms: _423  and  _424
REMARK  173  A    between atoms: _426  and  _428
REMARK  174  A    between atoms: _428  and  _429
REMARK  175  A    between atoms: _428  and  _431
REMARK  176  A    between atoms: _431  and  _432
REMARK  177  A    between atoms: _432  and  _433
REMARK  178  A    between atoms: _433  and  _434
REMARK  179  A    between atoms: _443  and  _445
REMARK  180  A    between atoms: _445  and  _446
REMARK  181  A    between atoms: _445  and  _448
REMARK  182  A    between atoms: _448  and  _449
REMARK  183  A    between atoms: _452  and  _454
REMARK  184  A    between atoms: _454  and  _455
REMARK  185  A    between atoms: _454  and  _457
REMARK  186  A    between atoms: _457  and  _458
REMARK  187  A    between atoms: _458  and  _459
REMARK  188  A    between atoms: _459  and  _460
REMARK  189  A    between atoms: _460  and  _461
REMARK  190  A    between atoms: _465  and  _467
REMARK  191  A    between atoms: _467  and  _468
REMARK  192  A    between atoms: _467  and  _470
REMARK  193  A    between atoms: _470  and  _471
REMARK  194  A    between atoms: _474  and  _476
REMARK  195  A    between atoms: _476  and  _477
REMARK  196  A    between atoms: _476  and  _479
REMARK  197  A    between atoms: _479  and  _480
REMARK  198  A    between atoms: _481  and  _483
REMARK  199  A    between atoms: _483  and  _484
REMARK  200  A    between atoms: _483  and  _486
REMARK  201  A    between atoms: _486  and  _487
REMARK  202  A    between atoms: _490  and  _492
REMARK  203  A    between atoms: _492  and  _493
REMARK  204  A    between atoms: _496  and  _498
REMARK  205  A    between atoms: _498  and  _499
REMARK  206  A    between atoms: _502  and  _504
REMARK  207  A    between atoms: _504  and  _505
REMARK  208  A    between atoms: _504  and  _507
REMARK  209  A    between atoms: _507  and  _508
REMARK  210  A    between atoms: _514  and  _516
REMARK  211  A    between atoms: _516  and  _517
REMARK  212  A    between atoms: _516  and  _519
REMARK  213  A    between atoms: _519  and  _520
REMARK  214  A    between atoms: _522  and  _524
REMARK  215  A    between atoms: _524  and  _525
REMARK  216  A    between atoms: _524  and  _527
REMARK  217  A    between atoms: _527  and  _528
REMARK  218  A    between atoms: _530  and  _532
REMARK  219  A    between atoms: _532  and  _533
REMARK  220  A    between atoms: _532  and  _535
REMARK  221  A    between atoms: _535  and  _536
REMARK  222  A    between atoms: _536  and  _537
REMARK  223  A    between atoms: _537  and  _538
REMARK  224  A    between atoms: _547  and  _549
REMARK  225  A    between atoms: _549  and  _550
REMARK  226  A    between atoms: _553  and  _555
REMARK  227  A    between atoms: _555  and  _556
REMARK  228  A    between atoms: _555  and  _558
REMARK  229  A    between atoms: _558  and  _559
REMARK  230  A    between atoms: _562  and  _564
REMARK  231  A    between atoms: _564  and  _565
REMARK  232  A    between atoms: _564  and  _567
REMARK  233  A    between atoms: _567  and  _568
REMARK  234  A    between atoms: _578  and  _580
REMARK  235  A    between atoms: _580  and  _581
REMARK  236  A    between atoms: _580  and  _583
REMARK  237  A    between atoms: _583  and  _584
REMARK  238  A    between atoms: _584  and  _585
REMARK  239  A    between atoms: _590  and  _592
REMARK  240  A    between atoms: _592  and  _593
REMARK  241  A    between atoms: _592  and  _595
REMARK  242  A    between atoms: _595  and  _596
REMARK  243  A    between atoms: _602  and  _604
REMARK  244  A    between atoms: _604  and  _605
REMARK  245  A    between atoms: _604  and  _607
REMARK  246  A    between atoms: _607  and  _608
REMARK  247  A    between atoms: _608  and  _609
REMARK  248  A    between atoms: _609  and  _610
REMARK  249  A    between atoms: _619  and  _621
REMARK  250  A    between atoms: _621  and  _622
REMARK  251  A    between atoms: _621  and  _624
REMARK  252  A    between atoms: _624  and  _625
REMARK  253  A    between atoms: _627  and  _629
REMARK  254  A    between atoms: _629  and  _630
REMARK  255  A    between atoms: _629  and  _632
REMARK  256  A    between atoms: _632  and  _633
REMARK  257  A    between atoms: _633  and  _634
REMARK  258  A    between atoms: _636  and  _638
REMARK  259  A    between atoms: _638  and  _639
REMARK  260  A    between atoms: _638  and  _641
REMARK  261  A    between atoms: _641  and  _642
REMARK  262  A    between atoms: _645  and  _647
REMARK  263  A    between atoms: _647  and  _648
REMARK  264  A    between atoms: _647  and  _650
REMARK  265  A    between atoms: _650  and  _651
REMARK  266  A    between atoms: _651  and  _652
REMARK  267  A    between atoms: _652  and  _653
REMARK  268  A    between atoms: _653  and  _654
REMARK  269  A    between atoms: _658  and  _660
REMARK  270  A    between atoms: _660  and  _661
REMARK  271  A    between atoms: _660  and  _663
REMARK  272  A    between atoms: _663  and  _664
REMARK  273  A    between atoms: _670  and  _671
REMARK  274  A    between atoms: _676  and  _678
REMARK  275  A    between atoms: _678  and  _679
REMARK  276  A    between atoms: _678  and  _681
REMARK  277  A    between atoms: _681  and  _682
REMARK  278  A    between atoms: _685  and  _687
REMARK  279  A    between atoms: _687  and  _688
REMARK  280  A    between atoms: _687  and  _690
REMARK  281  A    between atoms: _690  and  _691
REMARK  282  A    between atoms: _691  and  _692
REMARK  283  A    between atoms: _694  and  _696
REMARK  284  A    between atoms: _696  and  _697
REMARK  285  A    between atoms: _696  and  _699
REMARK  286  A    between atoms: _699  and  _700
REMARK  287  A    between atoms: _703  and  _705
REMARK  288  A    between atoms: _705  and  _706
REMARK  289  A    between atoms: _705  and  _708
REMARK  290  A    between atoms: _708  and  _709
REMARK  291  A    between atoms: _715  and  _717
REMARK  292  A    between atoms: _717  and  _718
REMARK  293  A    between atoms: _717  and  _720
REMARK  294  A    between atoms: _720  and  _721
REMARK  295  A    between atoms: _726  and  _728
REMARK  296  A    between atoms: _728  and  _729
REMARK  297  A    between atoms: _728  and  _731
REMARK  298  A    between atoms: _731  and  _732
REMARK  299  A    between atoms: _737  and  _739
REMARK  300  A    between atoms: _739  and  _740
REMARK  301  A    between atoms: _739  and  _742
REMARK  302  A    between atoms: _742  and  _743
REMARK  303  A    between atoms: _743  and  _755
REMARK  304  A    between atoms: _744  and  _746
REMARK  305  A    between atoms: _746  and  _747
REMARK  306  A    between atoms: _749  and  _751
REMARK  307  A    between atoms: _751  and  _752
REMARK  308  A    between atoms: _751  and  _754
REMARK  309  A    between atoms: _754  and  _755
REMARK  310  A    between atoms: _756  and  _758
REMARK  311  A    between atoms: _758  and  _759
REMARK  312  A    between atoms: _758  and  _761
REMARK  313  A    between atoms: _761  and  _762
REMARK  314  A    between atoms: _767  and  _769
REMARK  315  A    between atoms: _769  and  _770
REMARK  316  A    between atoms: _769  and  _772
REMARK  317  A    between atoms: _772  and  _773
REMARK  318  A    between atoms: _778  and  _779
REMARK  319  A    between atoms: _781  and  _783
REMARK  320  A    between atoms: _783  and  _784
REMARK  321  A    between atoms: _783  and  _786
REMARK  322  A    between atoms: _786  and  _787
REMARK                            x       y       z     vdW  Elec       q    Type
REMARK                         _______ _______ _______ _____ _____    ______ ____
ROOT
ATOM      1  C   ASP A   5       8.368  13.956  12.028  0.00  0.00    +0.241 C 
ATOM      2  N   PHE A   6       9.613  14.365  12.242  0.00  0.00    -0.297 N 
ATOM      3  H   PHE A   6       9.833  14.925  13.090  0.00  0.00    +0.150 HD
ATOM      4  O   ASP A   5       8.061  13.211  11.093  0.00  0.00    -0.273 OA
ENDROOT
BRANCH   2   5
ATOM      5  CA  PHE A   6      10.674  14.035  11.298  0.00  0.00    +0.153 C 
BRANCH   5   6
ATOM      6  C   PHE A   6      11.862  13.183  11.735  0.00  0.00    +0.241 C 
ATOM      7  N   ASN A   7      11.896  12.711  12.977  0.00  0.00    -0.297 N 
ATOM      8  H   ASN A   7      11.106  12.892  13.629  0.00  0.00    +0.150 HD
ATOM      9  O   PHE A   6      12.757  12.949  10.926  0.00  0.00    -0.273 OA
BRANCH   7  10
ATOM     10  CA  ASN A   7      13.056  11.934  13.420  0.00  0.00    +0.158 C 
BRANCH  10  11
ATOM     11  C   ASN A   7      13.044  10.443  13.092  0.00  0.00    +0.241 C 
ATOM     12  O   ASN A   7      14.039   9.752  13.316  0.00  0.00    -0.273 OA
ATOM     13  N   ASN A   8      11.930   9.946  12.570  0.00  0.00    -0.297 N 
ATOM     14  H   ASN A   8      11.118  10.576  12.410  0.00  0.00    +0.150 HD
BRANCH  13  15
ATOM     15  CA  ASN A   8      11.820   8.531  12.215  0.00  0.00    +0.158 C 
BRANCH  15  16
ATOM     16  C   ASN A   8      10.797   8.403  11.094  0.00  0.00    +0.241 C 
ATOM     17  O   ASN A   8       9.783   7.718  11.232  0.00  0.00    -0.273 OA
ATOM     18  N   TYR A   9      11.074   9.074   9.982  0.00  0.00    -0.298 N 
ATOM     19  H   TYR A   9      11.959   9.617   9.927  0.00  0.00    +0.150 HD
BRANCH  18  20
ATOM     20  CA  TYR A   9      10.175   9.071   8.839  0.00  0.00    +0.141 C 
BRANCH  20  21
ATOM     21  C   TYR A   9      10.908   8.634   7.583  0.00  0.00    +0.227 C 
ATOM     22  O   TYR A   9      12.024   9.073   7.318  0.00  0.00    -0.286 OA
ENDBRANCH  20  21
BRANCH  20  23
ATOM     23  CB  TYR A   9       9.594  10.477   8.654  0.00  0.00    +0.054 C 
BRANCH  23  24
ATOM     24  CG  TYR A   9       8.604  10.635   7.517  0.00  0.00    -0.020 A 
ATOM     25  CD2 TYR A   9       7.245  10.808   7.775  0.00  0.00    -0.001 A 
ATOM     26  CE2 TYR A   9       6.332  10.985   6.744  0.00  0.00    +0.036 A 
ATOM     27  CZ  TYR A   9       6.773  10.992   5.432  0.00  0.00    +0.134 A 
ATOM     28  CE1 TYR A   9       8.119  10.819   5.146  0.00  0.00    +0.036 A 
ATOM     29  CD1 TYR A   9       9.027  10.641   6.187  0.00  0.00    -0.001 A 
BRANCH  27  30
ATOM     30  OH  TYR A   9       5.871  11.186   4.407  0.00  0.00    -0.506 OA
ATOM     31  HH  TYR A   9       6.348  11.162   3.540  0.00  0.00    +0.292 HD
ENDBRANCH  27  30
ENDBRANCH  23  24
ENDBRANCH  20  23
ENDBRANCH  18  20
ENDBRANCH  15  16
BRANCH  15  32
ATOM     32  CB  ASN A   8      11.373   7.716  13.434  0.00  0.00    +0.114 C 
BRANCH  32  33
ATOM     33  CG  ASN A   8      11.380   6.217  13.176  0.00  0.00    +0.222 C 
ATOM     34  OD1 ASN A   8      10.965   5.431  14.030  0.00  0.00    -0.275 OA
ATOM     35  ND2 ASN A   8      11.854   5.814  12.003  0.00  0.00    -0.329 N 
ATOM     36 HD21 ASN A   8      11.885   4.800  11.776  0.00  0.00    +0.145 HD
ATOM     37 HD22 ASN A   8      12.194   6.513  11.312  0.00  0.00    +0.145 HD
ENDBRANCH  32  33
ENDBRANCH  15  32
ENDBRANCH  13  15
ENDBRANCH  10  11
BRANCH  10  38
ATOM     38  CB  ASN A   7      13.272  12.112  14.922  0.00  0.00    +0.114 C 
BRANCH  38  39
ATOM     39  CG  ASN A   7      14.649  11.653  15.370  0.00  0.00    +0.222 C 
ATOM     40  ND2 ASN A   7      14.688  10.620  16.204  0.00  0.00    -0.329 N 
ATOM     41 HD21 ASN A   7      15.603  10.260  16.543  0.00  0.00    +0.145 HD
ATOM     42 HD22 ASN A   7      13.804  10.171  16.518  0.00  0.00    +0.145 HD
ATOM     43  OD1 ASN A   7      15.668  12.222  14.967  0.00  0.00    -0.275 OA
ENDBRANCH  38  39
ENDBRANCH  10  38
ENDBRANCH   7  10
ENDBRANCH   5   6
BRANCH   5  44
ATOM     44  CB  PHE A   6      11.225  15.340  10.716  0.00  0.00    +0.055 C 
BRANCH  44  45
ATOM     45  CG  PHE A   6      10.165  16.291  10.239  0.00  0.00    -0.020 A 
ATOM     46  CD2 PHE A   6       9.869  17.445  10.962  0.00  0.00    -0.004 A 
ATOM     47  CE2 PHE A   6       8.886  18.332  10.523  0.00  0.00    -0.000 A 
ATOM     48  CZ  PHE A   6       8.190  18.064   9.349  0.00  0.00    -0.000 A 
ATOM     49  CE1 PHE A   6       8.478  16.915   8.622  0.00  0.00    -0.000 A 
ATOM     50  CD1 PHE A   6       9.460  16.035   9.068  0.00  0.00    -0.004 A 
ENDBRANCH  44  45
ENDBRANCH   5  44
ENDBRANCH   2   5
BRANCH   1  51
ATOM     51  CA  ASP A   5       7.304  14.441  13.000  0.00  0.00    +0.160 C 
BRANCH  51  54
ATOM     52  C   MET A   4       7.576  13.370  15.164  0.00  0.00    +0.241 C 
ATOM     53  O   MET A   4       7.261  12.270  14.708  0.00  0.00    -0.273 OA
ATOM     54  N   ASP A   5       7.647  14.466  14.417  0.00  0.00    -0.297 N 
ATOM     55  H   ASP A   5       7.953  15.360  14.851  0.00  0.00    +0.150 HD
BRANCH  52  56
ATOM     56  CA  MET A   4       7.916  13.535  16.641  0.00  0.00    +0.149 C 
BRANCH  56  58
ATOM     57  C   LEU A   3      10.289  14.010  16.378  0.00  0.00    +0.241 C 
ATOM     58  N   MET A   4       9.100  14.357  16.854  0.00  0.00    -0.297 N 
ATOM     59  H   MET A   4       9.011  15.241  17.395  0.00  0.00    +0.150 HD
ATOM     60  O   LEU A   3      10.473  12.990  15.712  0.00  0.00    -0.273 OA
BRANCH  57  61
ATOM     61  CA  LEU A   3      11.436  14.968  16.692  0.00  0.00    +0.149 C 
BRANCH  61  63
ATOM     62  C   PRO A   2      10.714  16.675  15.150  0.00  0.00    +0.241 C 
ATOM     63  N   LEU A   3      11.029  16.340  16.398  0.00  0.00    -0.297 N 
ATOM     64  H   LEU A   3      10.986  17.049  17.158  0.00  0.00    +0.150 HD
ATOM     65  O   PRO A   2      10.755  15.864  14.230  0.00  0.00    -0.273 OA
BRANCH  62  72
ATOM     66  C   HIS A   1       8.083  18.091  16.008  0.00  0.00    +0.242 C 
ATOM     67  O   HIS A   1       7.879  16.908  15.753  0.00  0.00    -0.273 OA
ATOM     68  N   PRO A   2       9.199  18.722  15.621  0.00  0.00    -0.272 N 
ATOM     69  CD  PRO A   2       9.554  20.097  16.022  0.00  0.00    +0.094 C 
ATOM     70  CG  PRO A   2      10.664  20.427  15.058  0.00  0.00    +0.024 C 
ATOM     71  CB  PRO A   2      11.420  19.126  15.015  0.00  0.00    +0.031 C 
ATOM     72  CA  PRO A   2      10.291  18.111  14.861  0.00  0.00    +0.152 C 
BRANCH  66  73
ATOM     73  CA  HIS A   1       7.062  18.928  16.766  0.00  0.00    +0.151 C 
BRANCH  73  74
ATOM     74  N   HIS A   1       6.330  19.492  15.634  0.00  0.00    -0.238 NA
ATOM     75  H   HIS A   1       5.995  18.847  14.890  0.00  0.00    +0.142 HD
ENDBRANCH  73  74
BRANCH  73  76
ATOM     76  CB  HIS A   1       6.116  18.071  17.605  0.00  0.00    +0.074 C 
BRANCH  76  77
ATOM     77  CG  HIS A   1       4.907  18.818  18.080  0.00  0.00    +0.082 A 
ATOM     78  ND1 HIS A   1       4.973  19.818  19.027  0.00  0.00    -0.227 NA
ATOM     79  CE1 HIS A   1       3.771  20.336  19.204  0.00  0.00    +0.199 A 
ATOM     80  NE2 HIS A   1       2.926  19.707  18.408  0.00  0.00    -0.221 NA
ATOM     81  CD2 HIS A   1       3.610  18.752  17.695  0.00  0.00    +0.115 A 
ENDBRANCH  76  77
ENDBRANCH  73  76
ENDBRANCH  66  73
ENDBRANCH  62  72
ENDBRANCH  61  63
BRANCH  61  82
ATOM     82  CB  LEU A   3      11.828  14.816  18.164  0.00  0.00    +0.029 C 
BRANCH  82  83
ATOM     83  CG  LEU A   3      12.442  13.457  18.512  0.00  0.00    +0.002 C 
ATOM     84  CD2 LEU A   3      12.365  13.224  20.009  0.00  0.00    +0.000 C 
ATOM     85  CD1 LEU A   3      13.893  13.418  18.057  0.00  0.00    +0.000 C 
ENDBRANCH  82  83
ENDBRANCH  61  82
ENDBRANCH  57  61
ENDBRANCH  56  58
BRANCH  56  86
ATOM     86  CB  MET A   4       6.719  14.154  17.360  0.00  0.00    +0.041 C 
BRANCH  86  87
ATOM     87  CG  MET A   4       5.412  13.420  17.110  0.00  0.00    +0.060 C 
BRANCH  87  88
ATOM     88  SD  MET A   4       4.019  14.306  17.809  0.00  0.00    -0.139 S 
ATOM     89  CE  MET A   4       4.109  13.776  19.474  0.00  0.00    +0.069 C 
ENDBRANCH  87  88
ENDBRANCH  86  87
ENDBRANCH  56  86
ENDBRANCH  52  56
ENDBRANCH  51  54
BRANCH  51  90
ATOM     90  CB  ASP A   5       6.873  15.833  12.520  0.00  0.00    +0.143 C 
BRANCH  90  91
ATOM     91  CG  ASP A   5       5.730  16.406  13.321  0.00  0.00    +0.367 C 
ATOM     92  OD2 ASP A   5       4.886  15.622  13.802  0.00  0.00    -0.246 OA
ATOM     93  OD1 ASP A   5       5.672  17.646  13.451  0.00  0.00    -0.246 OA
ENDBRANCH  90  91
ENDBRANCH  51  90
ENDBRANCH   1  51
TORSDOF 35
REMARK  Name = ../refined-set-2016/1hn4/1hn4_pocket.pdb
REMARK  322 active torsions:
REMARK  status: ('A' for Active; 'I' for Inactive)
REMARK    1  A    between atoms: _1  and  _5
REMARK    2  A    between atoms: _5  and  _6
REMARK    3  A    between atoms: _8  and  _10
REMARK    4  A    between atoms: _10  and  _11
REMARK    5  A    between atoms: _10  and  _13
REMARK    6  A    between atoms: _13  and  _14
REMARK    7  A    between atoms: _17  and  _19
REMARK    8  A    between atoms: _19  and  _20
REMARK    9  A    between atoms: _19  and  _22
REMARK   10  A    between atoms: _22  and  _23
REMARK   11  A    between atoms: _25  and  _27
REMARK   12  A    between atoms: _27  and  _28
REMARK   13  A    between atoms: _27  and  _30
REMARK   14  A    between atoms: _30  and  _31
REMARK   15  A    between atoms: _33  and  _35
REMARK   16  A    between atoms: _35  and  _36
REMARK   17  A    between atoms: _35  and  _38
REMARK   18  A    between atoms: _38  and  _39
REMARK   19  A    between atoms: _39  and  _40
REMARK   20  A    between atoms: _40  and  _41
REMARK   21  A    between atoms: _50  and  _52
REMARK   22  A    between atoms: _52  and  _53
REMARK   23  A    between atoms: _56  and  _58
REMARK   24  A    between atoms: _58  and  _59
REMARK   25  A    between atoms: _58  and  _61
REMARK   26  A    between atoms: _61  and  _62
REMARK   27  A    between atoms: _65  and  _67
REMARK   28  A    between atoms: _67  and  _68
REMARK   29  A    between atoms: _67  and  _70
REMARK   30  A    between atoms: _70  and  _71
REMARK   31  A    between atoms: _81  and  _83
REMARK   32  A    between atoms: _83  and  _84
REMARK   33  A    between atoms: _83  and  _86
REMARK   34  A    between atoms: _86  and  _87
REMARK   35  A    between atoms: _87  and  _88
REMARK   36  A    between atoms: _93  and  _95
REMARK   37  A    between atoms: _95  and  _96
REMARK   38  A    between atoms: _95  and  _98
REMARK   39  A    between atoms: _98  and  _99
REMARK   40  A    between atoms: _105  and  _107
REMARK   41  A    between atoms: _107  and  _108
REMARK   42  A    between atoms: _107  and  _110
REMARK   43  A    between atoms: _110  and  _111
REMARK   44  A    between atoms: _111  and  _112
REMARK   45  A    between atoms: _112  and  _113
REMARK   46  A    between atoms: _122  and  _124
REMARK   47  A    between atoms: _124  and  _125
REMARK   48  A    between atoms: _124  and  _127
REMARK   49  A    between atoms: _127  and  _128
REMARK   50  A    between atoms: _130  and  _132
REMARK   51  A    between atoms: _132  and  _133
REMARK   52  A    between atoms: _132  and  _135
REMARK   53  A    between atoms: _135  and  _136
REMARK   54  A    between atoms: _136  and  _137
REMARK   55  A    between atoms: _139  and  _141
REMARK   56  A    between atoms: _141  and  _142
REMARK   57  A    between atoms: _141  and  _144
REMARK   58  A    between atoms: _144  and  _145
REMARK   59  A    between atoms: _148  and  _150
REMARK   60  A    between atoms: _150  and  _151
REMARK   61  A    between atoms: _150  and  _153
REMARK   62  A    between atoms: _153  and  _154
REMARK   63  A    between atoms: _154  and  _155
REMARK   64  A    between atoms: _155  and  _156
REMARK   65  A    between atoms: _156  and  _157
REMARK   66  A    between atoms: _161  and  _163
REMARK   67  A    between atoms: _163  and  _164
REMARK   68  A    between atoms: _163  and  _166
REMARK   69  A    between atoms: _166  and  _167
REMARK   70  A    between atoms: _173  and  _174
REMARK   71  A    between atoms: _179  and  _181
REMARK   72  A    between atoms: _181  and  _182
REMARK   73  A    between atoms: _181  and  _184
REMARK   74  A    between atoms: _184  and  _185
REMARK   75  A    between atoms: _188  and  _190
REMARK   76  A    between atoms: _190  and  _191
REMARK   77  A    between atoms: _190  and  _193
REMARK   78  A    between atoms: _193  and  _194
REMARK   79  A    between atoms: _194  and  _195
REMARK   80  A    between atoms: _197  and  _199
REMARK   81  A    between atoms: _199  and  _200
REMARK   82  A    between atoms: _199  and  _202
REMARK   83  A    between atoms: _202  and  _203
REMARK   84  A    between atoms: _206  and  _208
REMARK   85  A    between atoms: _208  and  _209
REMARK   86  A    between atoms: _208  and  _211
REMARK   87  A    between atoms: _211  and  _212
REMARK   88  A    between atoms: _218  and  _220
REMARK   89  A    between atoms: _220  and  _221
REMARK   90  A    between atoms: _220  and  _223
REMARK   91  A    between atoms: _223  and  _224
REMARK   92  A    between atoms: _229  and  _231
REMARK   93  A    between atoms: _231  and  _232
REMARK   94  A    between atoms: _231  and  _234
REMARK   95  A    between atoms: _234  and  _235
REMARK   96  A    between atoms: _240  and  _242
REMARK   97  A    between atoms: _242  and  _243
REMARK   98  A    between atoms: _242  and  _245
REMARK   99  A    between atoms: _245  and  _246
REMARK  100  A    between atoms: _251  and  _252
REMARK  101  A    between atoms: _254  and  _256
REMARK  102  A    between atoms: _256  and  _257
REMARK  103  A    between atoms: _256  and  _259
REMARK  104  A    between atoms: _261  and  _263
REMARK  105  A    between atoms: _263  and  _264
REMARK  106  A    between atoms: _263  and  _266
REMARK  107  A    between atoms: _266  and  _267
REMARK  108  A    between atoms: _272  and  _273
REMARK  109  A    between atoms: _277  and  _280
REMARK  110  A    between atoms: _280  and  _281
REMARK  111  A    between atoms: _281  and  _354
REMARK  112  A    between atoms: _285  and  _287
REMARK  113  A    between atoms: _287  and  _289
REMARK  114  A    between atoms: _289  and  _290
REMARK  115  A    between atoms: _289  and  _292
REMARK  116  A    between atoms: _292  and  _293
REMARK  117  A    between atoms: _296  and  _298
REMARK  118  A    between atoms: _298  and  _299
REMARK  119  A    between atoms: _301  and  _303
REMARK  120  A    between atoms: _303  and  _304
REMARK  121  A    between atoms: _306  and  _308
REMARK  122  A    between atoms: _308  and  _309
REMARK  123  A    between atoms: _308  and  _311
REMARK  124  A    between atoms: _311  and  _312
REMARK  125  A    between atoms: _315  and  _317
REMARK  126  A    between atoms: _317  and  _318
REMARK  127  A    between atoms: _317  and  _320
REMARK  128  A    between atoms: _320  and  _321
REMARK  129  A    between atoms: _324  and  _326
REMARK  130  A    between atoms: _326  and  _327
REMARK  131  A    between atoms: _326  and  _329
REMARK  132  A    between atoms: _329  and  _330
REMARK  133  A    between atoms: _330  and  _331
REMARK  134  A    between atoms: _331  and  _332
REMARK  135  A    between atoms: _341  and  _343
REMARK  136  A    between atoms: _343  and  _344
REMARK  137  A    between atoms: _343  and  _346
REMARK  138  A    between atoms: _348  and  _350
REMARK  139  A    between atoms: _350  and  _351
REMARK  140  A    between atoms: _350  and  _353
REMARK  141  A    between atoms: _353  and  _354
REMARK  142  A    between atoms: _355  and  _357
REMARK  143  A    between atoms: _357  and  _358
REMARK  144  A    between atoms: _357  and  _360
REMARK  145  A    between atoms: _360  and  _361
REMARK  146  A    between atoms: _361  and  _362
REMARK  147  A    between atoms: _365  and  _367
REMARK  148  A    between atoms: _367  and  _368
REMARK  149  A    between atoms: _367  and  _370
REMARK  150  A    between atoms: _370  and  _371
REMARK  151  A    between atoms: _374  and  _376
REMARK  152  A    between atoms: _376  and  _377
REMARK  153  A    between atoms: _376  and  _379
REMARK  154  A    between atoms: _379  and  _380
REMARK  155  A    between atoms: _385  and  _387
REMARK  156  A    between atoms: _387  and  _388
REMARK  157  A    between atoms: _387  and  _390
REMARK  158  A    between atoms: _390  and  _391
REMARK  159  A    between atoms: _394  and  _396
REMARK  160  A    between atoms: _396  and  _397
REMARK  161  A    between atoms: _396  and  _399
REMARK  162  A    between atoms: _399  and  _400
REMARK  163  A    between atoms: _405  and  _407
REMARK  164  A    between atoms: _407  and  _408
REMARK  165  A    between atoms: _407  and  _410
REMARK  166  A    between atoms: _410  and  _411
REMARK  167  A    between atoms: _411  and  _480
REMARK  168  A    between atoms: _412  and  _414
REMARK  169  A    between atoms: _414  and  _415
REMARK  170  A    between atoms: _414  and  _417
REMARK  171  A    between atoms: _417  and  _418
REMARK  172  A    between atoms: _423  and  _424
REMARK  173  A    between atoms: _426  and  _428
REMARK  174  A    between atoms: _428  and  _429
REMARK  175  A    between atoms: _428  and  _431
REMARK  176  A    between atoms: _431  and  _432
REMARK  177  A    between atoms: _432  and  _433
REMARK  178  A    between atoms: _433  and  _434
REMARK  179  A    between atoms: _443  and  _445
REMARK  180  A    between atoms: _445  and  _446
REMARK  181  A    between atoms: _445  and  _448
REMARK  182  A    between atoms: _448  and  _449
REMARK  183  A    between atoms: _452  and  _454
REMARK  184  A    between atoms: _454  and  _455
REMARK  185  A    between atoms: _454  and  _457
REMARK  186  A    between atoms: _457  and  _458
REMARK  187  A    between atoms: _458  and  _459
REMARK  188  A    between atoms: _459  and  _460
REMARK  189  A    between atoms: _460  and  _461
REMARK  190  A    between atoms: _465  and  _467
REMARK  191  A    between atoms: _467  and  _468
REMARK  192  A    between atoms: _467  and  _470
REMARK  193  A    between atoms: _470  and  _471
REMARK  194  A    between atoms: _474  and  _476
REMARK  195  A    between atoms: _476  and  _477
REMARK  196  A    between atoms: _476  and  _479
REMARK  197  A    between atoms: _479  and  _480
REMARK  198  A    between atoms: _481  and  _483
REMARK  199  A    between atoms: _483  and  _484
REMARK  200  A    between atoms: _483  and  _486
REMARK  201  A    between atoms: _486  and  _487
REMARK  202  A    between atoms: _490  and  _492
REMARK  203  A    between atoms: _492  and  _493
REMARK  204  A    between atoms: _496  and  _498
REMARK  205  A    between atoms: _498  and  _499
REMARK  206  A    between atoms: _502  and  _504
REMARK  207  A    between atoms: _504  and  _505
REMARK  208  A    between atoms: _504  and  _507
REMARK  209  A    between atoms: _507  and  _508
REMARK  210  A    between atoms: _514  and  _516
REMARK  211  A    between atoms: _516  and  _517
REMARK  212  A    between atoms: _516  and  _519
REMARK  213  A    between atoms: _519  and  _520
REMARK  214  A    between atoms: _522  and  _524
REMARK  215  A    between atoms: _524  and  _525
REMARK  216  A    between atoms: _524  and  _527
REMARK  217  A    between atoms: _527  and  _528
REMARK  218  A    between atoms: _530  and  _532
REMARK  219  A    between atoms: _532  and  _533
REMARK  220  A    between atoms: _532  and  _535
REMARK  221  A    between atoms: _535  and  _536
REMARK  222  A    between atoms: _536  and  _537
REMARK  223  A    between atoms: _537  and  _538
REMARK  224  A    between atoms: _547  and  _549
REMARK  225  A    between atoms: _549  and  _550
REMARK  226  A    between atoms: _553  and  _555
REMARK  227  A    between atoms: _555  and  _556
REMARK  228  A    between atoms: _555  and  _558
REMARK  229  A    between atoms: _558  and  _559
REMARK  230  A    between atoms: _562  and  _564
REMARK  231  A    between atoms: _564  and  _565
REMARK  232  A    between atoms: _564  and  _567
REMARK  233  A    between atoms: _567  and  _568
REMARK  234  A    between atoms: _578  and  _580
REMARK  235  A    between atoms: _580  and  _581
REMARK  236  A    between atoms: _580  and  _583
REMARK  237  A    between atoms: _583  and  _584
REMARK  238  A    between atoms: _584  and  _585
REMARK  239  A    between atoms: _590  and  _592
REMARK  240  A    between atoms: _592  and  _593
REMARK  241  A    between atoms: _592  and  _595
REMARK  242  A    between atoms: _595  and  _596
REMARK  243  A    between atoms: _602  and  _604
REMARK  244  A    between atoms: _604  and  _605
REMARK  245  A    between atoms: _604  and  _607
REMARK  246  A    between atoms: _607  and  _608
REMARK  247  A    between atoms: _608  and  _609
REMARK  248  A    between atoms: _609  and  _610
REMARK  249  A    between atoms: _619  and  _621
REMARK  250  A    between atoms: _621  and  _622
REMARK  251  A    between atoms: _621  and  _624
REMARK  252  A    between atoms: _624  and  _625
REMARK  253  A    between atoms: _627  and  _629
REMARK  254  A    between atoms: _629  and  _630
REMARK  255  A    between atoms: _629  and  _632
REMARK  256  A    between atoms: _632  and  _633
REMARK  257  A    between atoms: _633  and  _634
REMARK  258  A    between atoms: _636  and  _638
REMARK  259  A    between atoms: _638  and  _639
REMARK  260  A    between atoms: _638  and  _641
REMARK  261  A    between atoms: _641  and  _642
REMARK  262  A    between atoms: _645  and  _647
REMARK  263  A    between atoms: _647  and  _648
REMARK  264  A    between atoms: _647  and  _650
REMARK  265  A    between atoms: _650  and  _651
REMARK  266  A    between atoms: _651  and  _652
REMARK  267  A    between atoms: _652  and  _653
REMARK  268  A    between atoms: _653  and  _654
REMARK  269  A    between atoms: _658  and  _660
REMARK  270  A    between atoms: _660  and  _661
REMARK  271  A    between atoms: _660  and  _663
REMARK  272  A    between atoms: _663  and  _664
REMARK  273  A    between atoms: _670  and  _671
REMARK  274  A    between atoms: _676  and  _678
REMARK  275  A    between atoms: _678  and  _679
REMARK  276  A    between atoms: _678  and  _681
REMARK  277  A    between atoms: _681  and  _682
REMARK  278  A    between atoms: _685  and  _687
REMARK  279  A    between atoms: _687  and  _688
REMARK  280  A    between atoms: _687  and  _690
REMARK  281  A    between atoms: _690  and  _691
REMARK  282  A    between atoms: _691  and  _692
REMARK  283  A    between atoms: _694  and  _696
REMARK  284  A    between atoms: _696  and  _697
REMARK  285  A    between atoms: _696  and  _699
REMARK  286  A    between atoms: _699  and  _700
REMARK  287  A    between atoms: _703  and  _705
REMARK  288  A    between atoms: _705  and  _706
REMARK  289  A    between atoms: _705  and  _708
REMARK  290  A    between atoms: _708  and  _709
REMARK  291  A    between atoms: _715  and  _717
REMARK  292  A    between atoms: _717  and  _718
REMARK  293  A    between atoms: _717  and  _720
REMARK  294  A    between atoms: _720  and  _721
REMARK  295  A    between atoms: _726  and  _728
REMARK  296  A    between atoms: _728  and  _729
REMARK  297  A    between atoms: _728  and  _731
REMARK  298  A    between atoms: _731  and  _732
REMARK  299  A    between atoms: _737  and  _739
REMARK  300  A    between atoms: _739  and  _740
REMARK  301  A    between atoms: _739  and  _742
REMARK  302  A    between atoms: _742  and  _743
REMARK  303  A    between atoms: _743  and  _755
REMARK  304  A    between atoms: _744  and  _746
REMARK  305  A    between atoms: _746  and  _747
REMARK  306  A    between atoms: _749  and  _751
REMARK  307  A    between atoms: _751  and  _752
REMARK  308  A    between atoms: _751  and  _754
REMARK  309  A    between atoms: _754  and  _755
REMARK  310  A    between atoms: _756  and  _758
REMARK  311  A    between atoms: _758  and  _759
REMARK  312  A    between atoms: _758  and  _761
REMARK  313  A    between atoms: _761  and  _762
REMARK  314  A    between atoms: _767  and  _769
REMARK  315  A    between atoms: _769  and  _770
REMARK  316  A    between atoms: _769  and  _772
REMARK  317  A    between atoms: _772  and  _773
REMARK  318  A    between atoms: _778  and  _779
REMARK  319  A    between atoms: _781  and  _783
REMARK  320  A    between atoms: _783  and  _784
REMARK  321  A    between atoms: _783  and  _786
REMARK  322  A    between atoms: _786  and  _787
REMARK                            x       y       z     vdW  Elec       q    Type
REMARK                         _______ _______ _______ _____ _____    ______ ____
ROOT
ATOM      1  CA  GLU A   6      18.229  12.884   1.823  0.00  0.00    +0.000 C 
ENDROOT
BRANCH   1   4
ATOM      2  C   UNK A   5      17.169  14.197   3.553  0.00  0.00    +0.000 C 
ATOM      3  O   UNK A   5      18.258  14.517   4.025  0.00  0.00    +0.000 OA
ATOM      4  N   GLU A   6      17.050  13.411   2.489  0.00  0.00    +0.000 N 
ATOM      5  H   GLU A   6      16.104  13.171   2.129  0.00  0.00    +0.000 HD
BRANCH   2   6
ATOM      6  C   UNK A   5      15.878  14.703   4.174  0.00  0.00    +0.000 C 
BRANCH   6   7
ATOM      7  N   UNK A   5      14.913  15.146   3.177  0.00  0.00    +0.000 N 
ATOM      8  H   UNK A   5      14.021  14.623   3.063  0.00  0.00    +0.000 HD
ATOM      9  C   CYS A   4      15.149  16.205   2.410  0.00  0.00    +0.000 C 
ATOM     10  O   CYS A   4      16.175  16.881   2.493  0.00  0.00    +0.000 OA
BRANCH   9  11
ATOM     11  CA  CYS A   4      14.043  16.563   1.426  0.00  0.00    +0.000 C 
BRANCH  11  12
ATOM     12  N   CYS A   4      13.576  15.327   0.800  0.00  0.00    +0.000 N 
ATOM     13  H   CYS A   4      12.584  15.034   0.911  0.00  0.00    +0.000 HD
ATOM     14  C   ARG A   3      14.413  14.574   0.088  0.00  0.00    +0.000 C 
ATOM     15  O   ARG A   3      15.586  14.890  -0.102  0.00  0.00    +0.000 OA
BRANCH  14  16
ATOM     16  CA  ARG A   3      13.856  13.269  -0.494  0.00  0.00    +0.000 C 
BRANCH  16  17
ATOM     17  N   ARG A   3      12.829  12.730   0.386  0.00  0.00    +0.000 N 
ATOM     18  C   ASP A   2      13.156  12.282   1.598  0.00  0.00    +0.000 C 
ATOM     19  O   ASP A   2      14.320  12.277   2.010  0.00  0.00    +0.000 OA
ATOM     20  H   ARG A   3      11.839  12.694   0.069  0.00  0.00    +0.000 HD
BRANCH  18  21
ATOM     21  CA  ASP A   2      12.013  11.764   2.477  0.00  0.00    +0.000 C 
BRANCH  21  22
ATOM     22  N   ASP A   2      10.833  12.589   2.264  0.00  0.00    +0.000 N 
ATOM     23  C   LEU A   1      10.848  13.886   2.534  0.00  0.00    +0.000 C 
ATOM     24  O   LEU A   1      11.841  14.463   2.972  0.00  0.00    +0.000 OA
ATOM     25  H   ASP A   2       9.964  12.153   1.894  0.00  0.00    +0.000 HD
BRANCH  23  26
ATOM     26  CA  LEU A   1       9.553  14.644   2.262  0.00  0.00    +0.000 C 
BRANCH  26  27
ATOM     27  N   LEU A   1       9.009  14.261   0.962  0.00  0.00    +0.000 NA
ATOM     28  H   LEU A   1       8.065  13.828   0.908  0.00  0.00    +0.000 HD
ENDBRANCH  26  27
BRANCH  26  29
ATOM     29  CB  LEU A   1       8.545  14.356   3.378  0.00  0.00    +0.000 C 
BRANCH  29  30
ATOM     30  CG  LEU A   1       9.040  14.598   4.809  0.00  0.00    +0.000 C 
ATOM     31  CD2 LEU A   1       7.883  14.410   5.768  0.00  0.00    +0.000 C 
ATOM     32  CD1 LEU A   1       9.639  15.996   4.944  0.00  0.00    +0.000 C 
ENDBRANCH  29  30
ENDBRANCH  26  29
ENDBRANCH  23  26
ENDBRANCH  21  22
BRANCH  21  33
ATOM     33  CB  ASP A   2      11.686  10.306   2.151  0.00  0.00    +0.000 C 
BRANCH  33  34
ATOM     34  CG  ASP A   2      12.549   9.325   2.924  0.00  0.00    +0.000 C 
ATOM     35  OD2 ASP A   2      13.244   9.745   3.873  0.00  0.00    +0.000 OA
ATOM     36  OD1 ASP A   2      12.517   8.123   2.589  0.00  0.00    +0.000 OA
ENDBRANCH  33  34
ENDBRANCH  21  33
ENDBRANCH  18  21
ENDBRANCH  16  17
BRANCH  16  37
ATOM     37  CB  ARG A   3      13.306  13.492  -1.910  0.00  0.00    +0.000 C 
BRANCH  37  38
ATOM     38  CG  ARG A   3      13.168  12.205  -2.711  0.00  0.00    +0.000 C 
BRANCH  38  39
ATOM     39  CD  ARG A   3      12.830  12.489  -4.170  0.00  0.00    +0.000 C 
BRANCH  39  40
ATOM     40  NE  ARG A   3      11.453  12.941  -4.350  0.00  0.00    +0.330 N 
ATOM     41  CZ  ARG A   3      10.401  12.129  -4.422  0.00  0.00    +0.000 C 
ATOM     42  NH2 ARG A   3      10.565  10.816  -4.341  0.00  0.00    +0.330 N 
ATOM     43 HH21 ARG A   3      11.518  10.417  -4.221  0.00  0.00    +0.000 HD
ATOM     44 HH22 ARG A   3       9.741  10.185  -4.398  0.00  0.00    +0.000 HD
ATOM     45  NH1 ARG A   3       9.183  12.633  -4.586  0.00  0.00    +0.330 N 
ATOM     46 HH11 ARG A   3       8.361  11.998  -4.642  0.00  0.00    +0.000 HD
ATOM     47 HH12 ARG A   3       9.051  13.662  -4.658  0.00  0.00    +0.000 HD
ATOM     48  HE  ARG A   3      11.283  13.964  -4.427  0.00  0.00    +0.000 HD
ENDBRANCH  39  40
ENDBRANCH  38  39
ENDBRANCH  37  38
ENDBRANCH  16  37
ENDBRANCH  14  16
ENDBRANCH  11  12
BRANCH  11  49
ATOM     49  CB  CYS A   4      12.935  17.239   2.228  0.00  0.00    +0.000 C 
ATOM     50  SG  CYS A   4      11.572  18.033   1.328  0.00  0.00    +0.000 S 
ENDBRANCH  11  49
ENDBRANCH   9  11
ENDBRANCH   6   7
BRANCH   6  51
ATOM     51  C   UNK A   5      15.254  13.627   5.068  0.00  0.00    +0.000 C 
BRANCH  51  52
ATOM     52  S   UNK A   5      13.850  14.302   6.005  0.00  0.00    +0.000 S 
BRANCH  52  53
ATOM     53  S   UNK A   0      12.508  12.785   6.179  0.00  0.00    +0.000 S 
BRANCH  53  54
ATOM     54  C   UNK A   0      12.890  11.974   7.770  0.00  0.00    +0.000 C 
BRANCH  54  65
ATOM     55  C   UNK A   0      15.946  10.423   6.508  0.00  0.00    +0.000 C 
ATOM     56  O   UNK A   0      16.838  11.116   6.981  0.00  0.00    +0.000 OA
ATOM     57 CA   UNK A   0      18.911  11.652   7.836  0.00  0.00    +0.000 Ca
ATOM     58  O   UNK A   0      18.221  11.570  10.102  0.00  0.00    +0.000 OA
ATOM     59  C   UNK A   0      17.682  11.033  11.069  0.00  0.00    +0.000 C 
ATOM     60  C   UNK A   0      16.169  10.986  11.162  0.00  0.00    +0.000 C 
ATOM     61  N   UNK A   0      15.701  11.453   9.871  0.00  0.00    +0.000 N 
ATOM     62  H   UNK A   0      16.216  12.225   9.402  0.00  0.00    +0.000 HD
ATOM     63  C   UNK A   0      14.641  10.933   9.265  0.00  0.00    +0.000 C 
ATOM     64  O   UNK A   0      13.952  10.030   9.743  0.00  0.00    +0.000 OA
ATOM     65  C   UNK A   0      14.345  11.533   7.897  0.00  0.00    +0.000 C 
ATOM     66  N   UNK A   0      14.679  10.555   6.876  0.00  0.00    +0.000 NA
ATOM     67  H   UNK A   0      13.938   9.969   6.442  0.00  0.00    +0.000 HD
BRANCH  59  68
ATOM     68  N   LEU A   1      18.384  10.487  12.055  0.00  0.00    +0.000 NA
ATOM     69  H   LEU A   1      17.896  10.050  12.863  0.00  0.00    +0.000 HD
BRANCH  68  70
ATOM     70  CA  LEU A   1      19.836  10.501  12.003  0.00  0.00    +0.000 C 
BRANCH  70  71
ATOM     71  C   LEU A   1      20.314   9.397  11.071  0.00  0.00    +0.000 C 
ATOM     72  O   LEU A   1      20.023   8.220  11.279  0.00  0.00    +0.000 OA
ATOM     73  N   ASP A   2      21.038   9.792  10.030  0.00  0.00    +0.000 N 
ATOM     74  H   ASP A   2      21.253  10.801   9.902  0.00  0.00    +0.000 HD
BRANCH  73  75
ATOM     75  CA  ASP A   2      21.530   8.821   9.071  0.00  0.00    +0.000 C 
BRANCH  75  76
ATOM     76  C   ASP A   2      20.485   8.523   8.014  0.00  0.00    +0.000 C 
ATOM     77  O   ASP A   2      19.542   9.291   7.823  0.00  0.00    +0.000 OA
ATOM     78  N   ARG A   3      20.656   7.399   7.331  0.00  0.00    +0.000 N 
ATOM     79  H   ARG A   3      21.469   6.787   7.546  0.00  0.00    +0.000 HD
BRANCH  78  80
ATOM     80  CA  ARG A   3      19.725   7.013   6.289  0.00  0.00    +0.000 C 
BRANCH  80  81
ATOM     81  C   ARG A   3      20.342   5.977   5.376  0.00  0.00    +0.000 C 
ATOM     82  O   ARG A   3      21.562   5.800   5.353  0.00  0.00    +0.000 OA
ENDBRANCH  80  81
ENDBRANCH  78  80
ENDBRANCH  75  76
ENDBRANCH  73  75
ENDBRANCH  70  71
BRANCH  70  83
ATOM     83  CB  LEU A   1      20.425  10.316  13.404  0.00  0.00    +0.000 C 
BRANCH  83  84
ATOM     84  CG  LEU A   1      20.168  11.471  14.377  0.00  0.00    +0.000 C 
ATOM     85  CD2 LEU A   1      20.769  11.126  15.728  0.00  0.00    +0.000 C 
ATOM     86  CD1 LEU A   1      20.772  12.758  13.839  0.00  0.00    +0.000 C 
ENDBRANCH  83  84
ENDBRANCH  70  83
ENDBRANCH  68  70
ENDBRANCH  59  68
BRANCH  55  87
ATOM     87  C   UNK A   0      16.282   9.392   5.446  0.00  0.00    +0.000 C 
BRANCH  87  90
ATOM     88  C   UNK A   0      15.528   7.089   5.298  0.00  0.00    +0.000 C 
ATOM     89  O   UNK A   0      16.590   6.663   5.756  0.00  0.00    +0.000 OA
ATOM     90  N   UNK A   0      15.278   8.384   5.132  0.00  0.00    +0.000 N 
ATOM     91  H   UNK A   0      14.349   8.683   4.772  0.00  0.00    +0.000 HD
BRANCH  88  92
ATOM     92  C   UNK A   0      14.427   6.124   4.895  0.00  0.00    +0.000 C 
BRANCH  92  93
ATOM     93  N   UNK A   0      13.100   6.719   4.832  0.00  0.00    +0.000 NA
ATOM     94  H   UNK A   0      12.820   7.231   3.971  0.00  0.00    +0.000 HD
ENDBRANCH  92  93
BRANCH  92  95
ATOM     95  C   UNK A   0      14.785   5.520   3.538  0.00  0.00    +0.000 C 
ATOM     96  S   UNK A   0      13.778   4.078   3.082  0.00  0.00    +0.000 S 
ENDBRANCH  92  95
ENDBRANCH  88  92
ENDBRANCH  87  90
BRANCH  87  97
ATOM     97  C   UNK A   0      16.688  10.115   4.165  0.00  0.00    +0.000 C 
BRANCH  97  98
ATOM     98  C   UNK A   0      17.561   9.259   3.292  0.00  0.00    +0.000 A 
ATOM     99  C   UNK A   0      18.935   9.187   3.515  0.00  0.00    +0.000 A 
ATOM    100  C   UNK A   0      19.740   8.340   2.767  0.00  0.00    +0.000 A 
ATOM    101  C   UNK A   0      19.167   7.551   1.783  0.00  0.00    +0.000 A 
ATOM    102  C   UNK A   0      17.804   7.608   1.538  0.00  0.00    +0.000 A 
ATOM    103  C   UNK A   0      17.010   8.462   2.290  0.00  0.00    +0.000 A 
BRANCH 101 104
ATOM    104  O   UNK A   0      19.958   6.694   1.061  0.00  0.00    +0.000 OA
ATOM    105  H   UNK A   0      19.650   5.764   1.202  0.00  0.00    +0.000 HD
ENDBRANCH 101 104
ENDBRANCH  97  98
ENDBRANCH  87  97
ENDBRANCH  55  87
ENDBRANCH  54  65
ENDBRANCH  53  54
ENDBRANCH  52  53
ENDBRANCH  51  52
ENDBRANCH   6  51
ENDBRANCH   2   6
ENDBRANCH   1   4
BRANCH   1 106
ATOM    106  C   GLU A   6      19.034  14.040   1.235  0.00  0.00    +0.000 C 
ATOM    107  O   GLU A   6      20.260  14.059   1.308  0.00  0.00    +0.000 OA
ATOM    108  N   THR A   7      18.336  15.009   0.653  0.00  0.00    +0.000 N 
ATOM    109  H   THR A   7      17.299  14.938   0.610  0.00  0.00    +0.000 HD
BRANCH 108 110
ATOM    110  CA  THR A   7      19.001  16.170   0.073  0.00  0.00    +0.000 C 
BRANCH 110 111
ATOM    111  C   THR A   7      19.728  16.925   1.184  0.00  0.00    +0.000 C 
ATOM    112  N   HIS A   8      19.071  17.035   2.332  0.00  0.00    +0.000 N 
ATOM    113  H   HIS A   8      18.121  16.620   2.410  0.00  0.00    +0.000 HD
ATOM    114  O   THR A   7      20.854  17.385   1.006  0.00  0.00    +0.000 OA
BRANCH 112 115
ATOM    115  CA  HIS A   8      19.639  17.720   3.489  0.00  0.00    +0.000 C 
BRANCH 115 116
ATOM    116  C   HIS A   8      20.936  17.036   3.913  0.00  0.00    +0.000 C 
ATOM    117  O   HIS A   8      21.953  17.689   4.164  0.00  0.00    +0.000 OA
ATOM    118  N   ASP A   9      20.888  15.711   3.990  0.00  0.00    +0.000 N 
ATOM    119  H   ASP A   9      20.001  15.220   3.759  0.00  0.00    +0.000 HD
BRANCH 118 120
ATOM    120  CA  ASP A   9      22.049  14.933   4.391  0.00  0.00    +0.000 C 
BRANCH 120 121
ATOM    121  C   ASP A   9      23.190  15.075   3.393  0.00  0.00    +0.000 C 
ATOM    122  O   ASP A   9      24.352  15.148   3.782  0.00  0.00    +0.000 OA
ATOM    123  N   ASN A  10      22.867  15.122   2.105  0.00  0.00    +0.000 N 
ATOM    124  H   ASN A  10      21.871  15.045   1.815  0.00  0.00    +0.000 HD
BRANCH 123 125
ATOM    125  CA  ASN A  10      23.910  15.281   1.100  0.00  0.00    +0.000 C 
BRANCH 125 126
ATOM    126  C   ASN A  10      24.524  16.674   1.204  0.00  0.00    +0.000 C 
ATOM    127  N   CYS A  11      23.702  17.661   1.543  0.00  0.00    +0.000 N 
ATOM    128  H   CYS A  11      22.697  17.454   1.714  0.00  0.00    +0.000 HD
ATOM    129  O   ASN A  10      25.719  16.853   0.991  0.00  0.00    +0.000 OA
BRANCH 127 130
ATOM    130  CA  CYS A  11      24.185  19.030   1.680  0.00  0.00    +0.000 C 
BRANCH 130 131
ATOM    131  C   CYS A  11      25.165  19.083   2.844  0.00  0.00    +0.000 C 
ATOM    132  N   TYR A  12      24.864  18.340   3.904  0.00  0.00    +0.000 N 
ATOM    133  H   TYR A  12      23.995  17.768   3.903  0.00  0.00    +0.000 HD
ATOM    134  O   CYS A  11      26.173  19.777   2.786  0.00  0.00    +0.000 OA
BRANCH 132 135
ATOM    135  CA  TYR A  12      25.739  18.320   5.065  0.00  0.00    +0.000 C 
BRANCH 135 136
ATOM    136  C   TYR A  12      27.052  17.635   4.718  0.00  0.00    +0.000 C 
ATOM    137  O   TYR A  12      28.107  18.011   5.223  0.00  0.00    +0.000 OA
ATOM    138  N   ARG A  13      26.981  16.625   3.855  0.00  0.00    +0.000 N 
ATOM    139  H   ARG A  13      26.055  16.338   3.478  0.00  0.00    +0.000 HD
BRANCH 138 140
ATOM    140  CA  ARG A  13      28.180  15.914   3.429  0.00  0.00    +0.000 C 
BRANCH 140 141
ATOM    141  C   ARG A  13      29.062  16.902   2.672  0.00  0.00    +0.000 C 
ATOM    142  O   ARG A  13      30.285  16.899   2.819  0.00  0.00    +0.000 OA
ATOM    143  N   ASP A  14      28.430  17.749   1.864  0.00  0.00    +0.000 N 
ATOM    144  H   ASP A  14      27.395  17.688   1.777  0.00  0.00    +0.000 HD
BRANCH 143 145
ATOM    145  CA  ASP A  14      29.148  18.760   1.098  0.00  0.00    +0.000 C 
BRANCH 145 146
ATOM    146  C   ASP A  14      29.815  19.732   2.067  0.00  0.00    +0.000 C 
ATOM    147  O   ASP A  14      30.971  20.112   1.885  0.00  0.00    +0.000 OA
ENDBRANCH 145 146
BRANCH 145 148
ATOM    148  CB  ASP A  14      28.186  19.531   0.188  0.00  0.00    +0.000 C 
BRANCH 148 149
ATOM    149  CG  ASP A  14      27.757  18.732  -1.026  0.00  0.00    +0.000 C 
ATOM    150  OD2 ASP A  14      28.351  17.665  -1.285  0.00  0.00    +0.000 OA
ATOM    151  OD1 ASP A  14      26.826  19.180  -1.729  0.00  0.00    +0.000 OA
ENDBRANCH 148 149
ENDBRANCH 145 148
ENDBRANCH 143 145
ENDBRANCH 140 141
BRANCH 140 152
ATOM    152  CB  ARG A  13      27.803  14.734   2.529  0.00  0.00    +0.000 C 
BRANCH 152 153
ATOM    153  CG  ARG A  13      26.916  13.710   3.221  0.00  0.00    +0.000 C 
BRANCH 153 154
ATOM    154  CD  ARG A  13      26.445  12.614   2.276  0.00  0.00    +0.000 C 
BRANCH 154 155
ATOM    155  NE  ARG A  13      25.315  11.881   2.842  0.00  0.00    +0.330 N 
ATOM    156  HE  ARG A  13      25.009  12.133   3.804  0.00  0.00    +0.000 HD
ATOM    157  CZ  ARG A  13      24.650  10.916   2.216  0.00  0.00    +0.000 C 
ATOM    158  NH2 ARG A  13      23.624  10.324   2.815  0.00  0.00    +0.330 N 
ATOM    159 HH21 ARG A  13      23.342  10.616   3.773  0.00  0.00    +0.000 HD
ATOM    160 HH22 ARG A  13      23.102   9.568   2.327  0.00  0.00    +0.000 HD
ATOM    161  NH1 ARG A  13      24.998  10.549   0.988  0.00  0.00    +0.330 N 
ATOM    162 HH11 ARG A  13      25.795  11.018   0.511  0.00  0.00    +0.000 HD
ATOM    163 HH12 ARG A  13      24.474   9.793   0.503  0.00  0.00    +0.000 HD
ENDBRANCH 154 155
ENDBRANCH 153 154
ENDBRANCH 152 153
ENDBRANCH 140 152
ENDBRANCH 138 140
ENDBRANCH 135 136
BRANCH 135 164
ATOM    164  CB  TYR A  12      25.072  17.591   6.230  0.00  0.00    +0.000 C 
BRANCH 164 165
ATOM    165  CG  TYR A  12      25.735  17.865   7.556  0.00  0.00    +0.000 A 
ATOM    166  CD2 TYR A  12      26.293  16.832   8.309  0.00  0.00    +0.000 A 
ATOM    167  CE2 TYR A  12      26.894  17.085   9.542  0.00  0.00    +0.000 A 
ATOM    168  CZ  TYR A  12      26.939  18.381  10.026  0.00  0.00    +0.000 A 
ATOM    169  CE1 TYR A  12      26.393  19.422   9.296  0.00  0.00    +0.000 A 
ATOM    170  CD1 TYR A  12      25.795  19.160   8.068  0.00  0.00    +0.000 A 
BRANCH 168 171
ATOM    171  OH  TYR A  12      27.532  18.644  11.240  0.00  0.00    +0.000 OA
ATOM    172  HH  TYR A  12      27.476  19.614  11.430  0.00  0.00    +0.000 HD
ENDBRANCH 168 171
ENDBRANCH 164 165
ENDBRANCH 135 164
ENDBRANCH 132 135
ENDBRANCH 130 131
BRANCH 130 173
ATOM    173  CB  CYS A  11      23.012  19.972   1.948  0.00  0.00    +0.000 C 
BRANCH 173 174
ATOM    174  SG  CYS A  11      23.353  21.762   1.853  0.00  0.00    +0.000 S 
BRANCH 174 175
ATOM    175  SG  LEU A   1      24.056  22.262   3.691  0.00  0.00    +0.000 S 
BRANCH 175 176
ATOM    176  CB  LEU A   1      22.554  22.461   4.694  0.00  0.00    +0.000 C 
BRANCH 176 177
ATOM    177  CA  LEU A   1      21.509  23.466   4.220  0.00  0.00    +0.000 C 
BRANCH 177 178
ATOM    178  C   LEU A   1      20.258  23.248   5.063  0.00  0.00    +0.000 C 
ATOM    179  N   ASP A   2      20.309  23.705   6.311  0.00  0.00    +0.000 N 
ATOM    180  H   ASP A   2      21.169  24.187   6.643  0.00  0.00    +0.000 HD
ATOM    181  O   LEU A   1      19.280  22.665   4.607  0.00  0.00    +0.000 OA
BRANCH 179 182
ATOM    182  CA  ASP A   2      19.186  23.544   7.219  0.00  0.00    +0.000 C 
BRANCH 182 183
ATOM    183  C   ASP A   2      17.980  24.353   6.755  0.00  0.00    +0.000 C 
ATOM    184  O   ASP A   2      16.851  23.886   6.829  0.00  0.00    +0.000 OA
ENDBRANCH 182 183
BRANCH 182 185
ATOM    185  CB  ASP A   2      19.580  23.971   8.640  0.00  0.00    +0.000 C 
BRANCH 185 186
ATOM    186  CG  ASP A   2      20.482  22.959   9.338  0.00  0.00    +0.000 C 
ATOM    187  OD2 ASP A   2      20.814  23.184  10.522  0.00  0.00    +0.000 OA
ATOM    188  OD1 ASP A   2      20.861  21.942   8.723  0.00  0.00    +0.000 OA
ENDBRANCH 185 186
ENDBRANCH 182 185
ENDBRANCH 179 182
ENDBRANCH 177 178
BRANCH 177 189
ATOM    189  N   LEU A   1      21.976  24.837   4.407  0.00  0.00    +0.000 NA
ATOM    190  H   LEU A   1      22.926  25.006   4.795  0.00  0.00    +0.000 HD
ENDBRANCH 177 189
ENDBRANCH 176 177
ENDBRANCH 175 176
ENDBRANCH 174 175
ENDBRANCH 173 174
ENDBRANCH 130 173
ENDBRANCH 127 130
ENDBRANCH 125 126
BRANCH 125 191
ATOM    191  CB  ASN A  10      23.347  15.053  -0.305  0.00  0.00    +0.000 C 
BRANCH 191 192
ATOM    192  CG  ASN A  10      23.002  13.601  -0.559  0.00  0.00    +0.000 C 
ATOM    193  OD1 ASN A  10      23.693  12.703  -0.085  0.00  0.00    +0.000 OA
ATOM    194  ND2 ASN A  10      21.940  13.364  -1.319  0.00  0.00    +0.000 N 
ATOM    195 HD21 ASN A  10      21.663  12.385  -1.535  0.00  0.00    +0.000 HD
ATOM    196 HD22 ASN A  10      21.385  14.157  -1.699  0.00  0.00    +0.000 HD
ENDBRANCH 191 192
ENDBRANCH 125 191
ENDBRANCH 123 125
ENDBRANCH 120 121
BRANCH 120 197
ATOM    197  CB  ASP A   9      21.658  13.462   4.557  0.00  0.00    +0.000 C 
BRANCH 197 198
ATOM    198  CG  ASP A   9      20.586  13.266   5.612  0.00  0.00    +0.000 C 
ATOM    199  OD2 ASP A   9      20.266  14.244   6.325  0.00  0.00    +0.000 OA
ATOM    200  OD1 ASP A   9      20.068  12.141   5.736  0.00  0.00    +0.000 OA
ENDBRANCH 197 198
ENDBRANCH 120 197
ENDBRANCH 118 120
ENDBRANCH 115 116
BRANCH 115 201
ATOM    201  CB  HIS A   8      18.642  17.682   4.650  0.00  0.00    +0.000 C 
BRANCH 201 202
ATOM    202  CG  HIS A   8      19.079  18.459   5.854  0.00  0.00    +0.000 A 
ATOM    203  ND1 HIS A   8      18.645  18.160   7.127  0.00  0.00    +0.000 NA
ATOM    204  CE1 HIS A   8      19.176  19.015   7.983  0.00  0.00    +0.000 A 
ATOM    205  NE2 HIS A   8      19.939  19.858   7.311  0.00  0.00    +0.000 NA
ATOM    206  CD2 HIS A   8      19.895  19.533   5.977  0.00  0.00    +0.000 A 
ENDBRANCH 201 202
ENDBRANCH 115 201
ENDBRANCH 112 115
ENDBRANCH 110 111
BRANCH 110 207
ATOM    207  CB  THR A   7      17.982  17.107  -0.613  0.00  0.00    +0.000 C 
ATOM    208  CG2 THR A   7      18.664  18.385  -1.091  0.00  0.00    +0.000 C 
BRANCH 207 209
ATOM    209  OG1 THR A   7      17.398  16.432  -1.738  0.00  0.00    +0.000 OA
ATOM    210  HG1 THR A   7      16.745  17.032  -2.178  0.00  0.00    +0.000 HD
ENDBRANCH 207 209
ENDBRANCH 110 207
ENDBRANCH 108 110
ENDBRANCH   1 106
BRANCH   1 211
ATOM    211  CB  GLU A   6      17.808  11.913   0.720  0.00  0.00    +0.000 C 
BRANCH 211 212
ATOM    212  CG  GLU A   6      18.963  11.220   0.030  0.00  0.00    +0.000 C 
BRANCH 212 213
ATOM    213  CD  GLU A   6      18.994  11.519  -1.448  0.00  0.00    +0.000 C 
ATOM    214  OE2 GLU A   6      19.246  12.686  -1.818  0.00  0.00    +0.000 OA
ATOM    215  OE1 GLU A   6      18.753  10.588  -2.242  0.00  0.00    +0.000 OA
ENDBRANCH 212 213
ENDBRANCH 211 212
ENDBRANCH   1 211
TORSDOF 90
REMARK  Name = ../refined-set-2016/1hn4/1hn4_pocket.pdb
REMARK  322 active torsions:
REMARK  status: ('A' for Active; 'I' for Inactive)
REMARK    1  A    between atoms: _1  and  _5
REMARK    2  A    between atoms: _5  and  _6
REMARK    3  A    between atoms: _8  and  _10
REMARK    4  A    between atoms: _10  and  _11
REMARK    5  A    between atoms: _10  and  _13
REMARK    6  A    between atoms: _13  and  _14
REMARK    7  A    between atoms: _17  and  _19
REMARK    8  A    between atoms: _19  and  _20
REMARK    9  A    between atoms: _19  and  _22
REMARK   10  A    between atoms: _22  and  _23
REMARK   11  A    between atoms: _25  and  _27
REMARK   12  A    between atoms: _27  and  _28
REMARK   13  A    between atoms: _27  and  _30
REMARK   14  A    between atoms: _30  and  _31
REMARK   15  A    between atoms: _33  and  _35
REMARK   16  A    between atoms: _35  and  _36
REMARK   17  A    between atoms: _35  and  _38
REMARK   18  A    between atoms: _38  and  _39
REMARK   19  A    between atoms: _39  and  _40
REMARK   20  A    between atoms: _40  and  _41
REMARK   21  A    between atoms: _50  and  _52
REMARK   22  A    between atoms: _52  and  _53
REMARK   23  A    between atoms: _56  and  _58
REMARK   24  A    between atoms: _58  and  _59
REMARK   25  A    between atoms: _58  and  _61
REMARK   26  A    between atoms: _61  and  _62
REMARK   27  A    between atoms: _65  and  _67
REMARK   28  A    between atoms: _67  and  _68
REMARK   29  A    between atoms: _67  and  _70
REMARK   30  A    between atoms: _70  and  _71
REMARK   31  A    between atoms: _81  and  _83
REMARK   32  A    between atoms: _83  and  _84
REMARK   33  A    between atoms: _83  and  _86
REMARK   34  A    between atoms: _86  and  _87
REMARK   35  A    between atoms: _87  and  _88
REMARK   36  A    between atoms: _93  and  _95
REMARK   37  A    between atoms: _95  and  _96
REMARK   38  A    between atoms: _95  and  _98
REMARK   39  A    between atoms: _98  and  _99
REMARK   40  A    between atoms: _105  and  _107
REMARK   41  A    between atoms: _107  and  _108
REMARK   42  A    between atoms: _107  and  _110
REMARK   43  A    between atoms: _110  and  _111
REMARK   44  A    between atoms: _111  and  _112
REMARK   45  A    between atoms: _112  and  _113
REMARK   46  A    between atoms: _122  and  _124
REMARK   47  A    between atoms: _124  and  _125
REMARK   48  A    between atoms: _124  and  _127
REMARK   49  A    between atoms: _127  and  _128
REMARK   50  A    between atoms: _130  and  _132
REMARK   51  A    between atoms: _132  and  _133
REMARK   52  A    between atoms: _132  and  _135
REMARK   53  A    between atoms: _135  and  _136
REMARK   54  A    between atoms: _136  and  _137
REMARK   55  A    between atoms: _139  and  _141
REMARK   56  A    between atoms: _141  and  _142
REMARK   57  A    between atoms: _141  and  _144
REMARK   58  A    between atoms: _144  and  _145
REMARK   59  A    between atoms: _148  and  _150
REMARK   60  A    between atoms: _150  and  _151
REMARK   61  A    between atoms: _150  and  _153
REMARK   62  A    between atoms: _153  and  _154
REMARK   63  A    between atoms: _154  and  _155
REMARK   64  A    between atoms: _155  and  _156
REMARK   65  A    between atoms: _156  and  _157
REMARK   66  A    between atoms: _161  and  _163
REMARK   67  A    between atoms: _163  and  _164
REMARK   68  A    between atoms: _163  and  _166
REMARK   69  A    between atoms: _166  and  _167
REMARK   70  A    between atoms: _173  and  _174
REMARK   71  A    between atoms: _179  and  _181
REMARK   72  A    between atoms: _181  and  _182
REMARK   73  A    between atoms: _181  and  _184
REMARK   74  A    between atoms: _184  and  _185
REMARK   75  A    between atoms: _188  and  _190
REMARK   76  A    between atoms: _190  and  _191
REMARK   77  A    between atoms: _190  and  _193
REMARK   78  A    between atoms: _193  and  _194
REMARK   79  A    between atoms: _194  and  _195
REMARK   80  A    between atoms: _197  and  _199
REMARK   81  A    between atoms: _199  and  _200
REMARK   82  A    between atoms: _199  and  _202
REMARK   83  A    between atoms: _202  and  _203
REMARK   84  A    between atoms: _206  and  _208
REMARK   85  A    between atoms: _208  and  _209
REMARK   86  A    between atoms: _208  and  _211
REMARK   87  A    between atoms: _211  and  _212
REMARK   88  A    between atoms: _218  and  _220
REMARK   89  A    between atoms: _220  and  _221
REMARK   90  A    between atoms: _220  and  _223
REMARK   91  A    between atoms: _223  and  _224
REMARK   92  A    between atoms: _229  and  _231
REMARK   93  A    between atoms: _231  and  _232
REMARK   94  A    between atoms: _231  and  _234
REMARK   95  A    between atoms: _234  and  _235
REMARK   96  A    between atoms: _240  and  _242
REMARK   97  A    between atoms: _242  and  _243
REMARK   98  A    between atoms: _242  and  _245
REMARK   99  A    between atoms: _245  and  _246
REMARK  100  A    between atoms: _251  and  _252
REMARK  101  A    between atoms: _254  and  _256
REMARK  102  A    between atoms: _256  and  _257
REMARK  103  A    between atoms: _256  and  _259
REMARK  104  A    between atoms: _261  and  _263
REMARK  105  A    between atoms: _263  and  _264
REMARK  106  A    between atoms: _263  and  _266
REMARK  107  A    between atoms: _266  and  _267
REMARK  108  A    between atoms: _272  and  _273
REMARK  109  A    between atoms: _277  and  _280
REMARK  110  A    between atoms: _280  and  _281
REMARK  111  A    between atoms: _281  and  _354
REMARK  112  A    between atoms: _285  and  _287
REMARK  113  A    between atoms: _287  and  _289
REMARK  114  A    between atoms: _289  and  _290
REMARK  115  A    between atoms: _289  and  _292
REMARK  116  A    between atoms: _292  and  _293
REMARK  117  A    between atoms: _296  and  _298
REMARK  118  A    between atoms: _298  and  _299
REMARK  119  A    between atoms: _301  and  _303
REMARK  120  A    between atoms: _303  and  _304
REMARK  121  A    between atoms: _306  and  _308
REMARK  122  A    between atoms: _308  and  _309
REMARK  123  A    between atoms: _308  and  _311
REMARK  124  A    between atoms: _311  and  _312
REMARK  125  A    between atoms: _315  and  _317
REMARK  126  A    between atoms: _317  and  _318
REMARK  127  A    between atoms: _317  and  _320
REMARK  128  A    between atoms: _320  and  _321
REMARK  129  A    between atoms: _324  and  _326
REMARK  130  A    between atoms: _326  and  _327
REMARK  131  A    between atoms: _326  and  _329
REMARK  132  A    between atoms: _329  and  _330
REMARK  133  A    between atoms: _330  and  _331
REMARK  134  A    between atoms: _331  and  _332
REMARK  135  A    between atoms: _341  and  _343
REMARK  136  A    between atoms: _343  and  _344
REMARK  137  A    between atoms: _343  and  _346
REMARK  138  A    between atoms: _348  and  _350
REMARK  139  A    between atoms: _350  and  _351
REMARK  140  A    between atoms: _350  and  _353
REMARK  141  A    between atoms: _353  and  _354
REMARK  142  A    between atoms: _355  and  _357
REMARK  143  A    between atoms: _357  and  _358
REMARK  144  A    between atoms: _357  and  _360
REMARK  145  A    between atoms: _360  and  _361
REMARK  146  A    between atoms: _361  and  _362
REMARK  147  A    between atoms: _365  and  _367
REMARK  148  A    between atoms: _367  and  _368
REMARK  149  A    between atoms: _367  and  _370
REMARK  150  A    between atoms: _370  and  _371
REMARK  151  A    between atoms: _374  and  _376
REMARK  152  A    between atoms: _376  and  _377
REMARK  153  A    between atoms: _376  and  _379
REMARK  154  A    between atoms: _379  and  _380
REMARK  155  A    between atoms: _385  and  _387
REMARK  156  A    between atoms: _387  and  _388
REMARK  157  A    between atoms: _387  and  _390
REMARK  158  A    between atoms: _390  and  _391
REMARK  159  A    between atoms: _394  and  _396
REMARK  160  A    between atoms: _396  and  _397
REMARK  161  A    between atoms: _396  and  _399
REMARK  162  A    between atoms: _399  and  _400
REMARK  163  A    between atoms: _405  and  _407
REMARK  164  A    between atoms: _407  and  _408
REMARK  165  A    between atoms: _407  and  _410
REMARK  166  A    between atoms: _410  and  _411
REMARK  167  A    between atoms: _411  and  _480
REMARK  168  A    between atoms: _412  and  _414
REMARK  169  A    between atoms: _414  and  _415
REMARK  170  A    between atoms: _414  and  _417
REMARK  171  A    between atoms: _417  and  _418
REMARK  172  A    between atoms: _423  and  _424
REMARK  173  A    between atoms: _426  and  _428
REMARK  174  A    between atoms: _428  and  _429
REMARK  175  A    between atoms: _428  and  _431
REMARK  176  A    between atoms: _431  and  _432
REMARK  177  A    between atoms: _432  and  _433
REMARK  178  A    between atoms: _433  and  _434
REMARK  179  A    between atoms: _443  and  _445
REMARK  180  A    between atoms: _445  and  _446
REMARK  181  A    between atoms: _445  and  _448
REMARK  182  A    between atoms: _448  and  _449
REMARK  183  A    between atoms: _452  and  _454
REMARK  184  A    between atoms: _454  and  _455
REMARK  185  A    between atoms: _454  and  _457
REMARK  186  A    between atoms: _457  and  _458
REMARK  187  A    between atoms: _458  and  _459
REMARK  188  A    between atoms: _459  and  _460
REMARK  189  A    between atoms: _460  and  _461
REMARK  190  A    between atoms: _465  and  _467
REMARK  191  A    between atoms: _467  and  _468
REMARK  192  A    between atoms: _467  and  _470
REMARK  193  A    between atoms: _470  and  _471
REMARK  194  A    between atoms: _474  and  _476
REMARK  195  A    between atoms: _476  and  _477
REMARK  196  A    between atoms: _476  and  _479
REMARK  197  A    between atoms: _479  and  _480
REMARK  198  A    between atoms: _481  and  _483
REMARK  199  A    between atoms: _483  and  _484
REMARK  200  A    between atoms: _483  and  _486
REMARK  201  A    between atoms: _486  and  _487
REMARK  202  A    between atoms: _490  and  _492
REMARK  203  A    between atoms: _492  and  _493
REMARK  204  A    between atoms: _496  and  _498
REMARK  205  A    between atoms: _498  and  _499
REMARK  206  A    between atoms: _502  and  _504
REMARK  207  A    between atoms: _504  and  _505
REMARK  208  A    between atoms: _504  and  _507
REMARK  209  A    between atoms: _507  and  _508
REMARK  210  A    between atoms: _514  and  _516
REMARK  211  A    between atoms: _516  and  _517
REMARK  212  A    between atoms: _516  and  _519
REMARK  213  A    between atoms: _519  and  _520
REMARK  214  A    between atoms: _522  and  _524
REMARK  215  A    between atoms: _524  and  _525
REMARK  216  A    between atoms: _524  and  _527
REMARK  217  A    between atoms: _527  and  _528
REMARK  218  A    between atoms: _530  and  _532
REMARK  219  A    between atoms: _532  and  _533
REMARK  220  A    between atoms: _532  and  _535
REMARK  221  A    between atoms: _535  and  _536
REMARK  222  A    between atoms: _536  and  _537
REMARK  223  A    between atoms: _537  and  _538
REMARK  224  A    between atoms: _547  and  _549
REMARK  225  A    between atoms: _549  and  _550
REMARK  226  A    between atoms: _553  and  _555
REMARK  227  A    between atoms: _555  and  _556
REMARK  228  A    between atoms: _555  and  _558
REMARK  229  A    between atoms: _558  and  _559
REMARK  230  A    between atoms: _562  and  _564
REMARK  231  A    between atoms: _564  and  _565
REMARK  232  A    between atoms: _564  and  _567
REMARK  233  A    between atoms: _567  and  _568
REMARK  234  A    between atoms: _578  and  _580
REMARK  235  A    between atoms: _580  and  _581
REMARK  236  A    between atoms: _580  and  _583
REMARK  237  A    between atoms: _583  and  _584
REMARK  238  A    between atoms: _584  and  _585
REMARK  239  A    between atoms: _590  and  _592
REMARK  240  A    between atoms: _592  and  _593
REMARK  241  A    between atoms: _592  and  _595
REMARK  242  A    between atoms: _595  and  _596
REMARK  243  A    between atoms: _602  and  _604
REMARK  244  A    between atoms: _604  and  _605
REMARK  245  A    between atoms: _604  and  _607
REMARK  246  A    between atoms: _607  and  _608
REMARK  247  A    between atoms: _608  and  _609
REMARK  248  A    between atoms: _609  and  _610
REMARK  249  A    between atoms: _619  and  _621
REMARK  250  A    between atoms: _621  and  _622
REMARK  251  A    between atoms: _621  and  _624
REMARK  252  A    between atoms: _624  and  _625
REMARK  253  A    between atoms: _627  and  _629
REMARK  254  A    between atoms: _629  and  _630
REMARK  255  A    between atoms: _629  and  _632
REMARK  256  A    between atoms: _632  and  _633
REMARK  257  A    between atoms: _633  and  _634
REMARK  258  A    between atoms: _636  and  _638
REMARK  259  A    between atoms: _638  and  _639
REMARK  260  A    between atoms: _638  and  _641
REMARK  261  A    between atoms: _641  and  _642
REMARK  262  A    between atoms: _645  and  _647
REMARK  263  A    between atoms: _647  and  _648
REMARK  264  A    between atoms: _647  and  _650
REMARK  265  A    between atoms: _650  and  _651
REMARK  266  A    between atoms: _651  and  _652
REMARK  267  A    between atoms: _652  and  _653
REMARK  268  A    between atoms: _653  and  _654
REMARK  269  A    between atoms: _658  and  _660
REMARK  270  A    between atoms: _660  and  _661
REMARK  271  A    between atoms: _660  and  _663
REMARK  272  A    between atoms: _663  and  _664
REMARK  273  A    between atoms: _670  and  _671
REMARK  274  A    between atoms: _676  and  _678
REMARK  275  A    between atoms: _678  and  _679
REMARK  276  A    between atoms: _678  and  _681
REMARK  277  A    between atoms: _681  and  _682
REMARK  278  A    between atoms: _685  and  _687
REMARK  279  A    between atoms: _687  and  _688
REMARK  280  A    between atoms: _687  and  _690
REMARK  281  A    between atoms: _690  and  _691
REMARK  282  A    between atoms: _691  and  _692
REMARK  283  A    between atoms: _694  and  _696
REMARK  284  A    between atoms: _696  and  _697
REMARK  285  A    between atoms: _696  and  _699
REMARK  286  A    between atoms: _699  and  _700
REMARK  287  A    between atoms: _703  and  _705
REMARK  288  A    between atoms: _705  and  _706
REMARK  289  A    between atoms: _705  and  _708
REMARK  290  A    between atoms: _708  and  _709
REMARK  291  A    between atoms: _715  and  _717
REMARK  292  A    between atoms: _717  and  _718
REMARK  293  A    between atoms: _717  and  _720
REMARK  294  A    between atoms: _720  and  _721
REMARK  295  A    between atoms: _726  and  _728
REMARK  296  A    between atoms: _728  and  _729
REMARK  297  A    between atoms: _728  and  _731
REMARK  298  A    between atoms: _731  and  _732
REMARK  299  A    between atoms: _737  and  _739
REMARK  300  A    between atoms: _739  and  _740
REMARK  301  A    between atoms: _739  and  _742
REMARK  302  A    between atoms: _742  and  _743
REMARK  303  A    between atoms: _743  and  _755
REMARK  304  A    between atoms: _744  and  _746
REMARK  305  A    between atoms: _746  and  _747
REMARK  306  A    between atoms: _749  and  _751
REMARK  307  A    between atoms: _751  and  _752
REMARK  308  A    between atoms: _751  and  _754
REMARK  309  A    between atoms: _754  and  _755
REMARK  310  A    between atoms: _756  and  _758
REMARK  311  A    between atoms: _758  and  _759
REMARK  312  A    between atoms: _758  and  _761
REMARK  313  A    between atoms: _761  and  _762
REMARK  314  A    between atoms: _767  and  _769
REMARK  315  A    between atoms: _769  and  _770
REMARK  316  A    between atoms: _769  and  _772
REMARK  317  A    between atoms: _772  and  _773
REMARK  318  A    between atoms: _778  and  _779
REMARK  319  A    between atoms: _781  and  _783
REMARK  320  A    between atoms: _783  and  _784
REMARK  321  A    between atoms: _783  and  _786
REMARK  322  A    between atoms: _786  and  _787
REMARK                            x       y       z     vdW  Elec       q    Type
REMARK                         _______ _______ _______ _____ _____    ______ ____
ROOT
ATOM      1  CG  LYS A   1      30.600  16.985   7.316  0.00  0.00    -0.000 C 
ENDROOT
BRANCH   1   2
ATOM      2  CB  LYS A   1      31.526  17.096   6.117  0.00  0.00    +0.025 C 
BRANCH   2   3
ATOM      3  CA  LYS A   1      31.909  18.525   5.726  0.00  0.00    +0.133 C 
BRANCH   3   4
ATOM      4  N   LYS A   1      30.780  19.204   5.102  0.00  0.00    -0.239 NA
ATOM      5  H   LYS A   1      29.898  18.677   4.943  0.00  0.00    +0.142 HD
ENDBRANCH   3   4
BRANCH   3   6
ATOM      6  C   LYS A   1      33.137  18.482   4.825  0.00  0.00    +0.224 C 
ATOM      7  O   LYS A   1      34.260  18.374   5.312  0.00  0.00    -0.287 OA
ENDBRANCH   3   6
ENDBRANCH   2   3
ENDBRANCH   1   2
BRANCH   1   8
ATOM      8  CD  LYS A   1      30.340  15.522   7.655  0.00  0.00    -0.024 C 
BRANCH   8   9
ATOM      9  CE  LYS A   1      29.518  15.372   8.920  0.00  0.00    -0.086 C 
BRANCH   9  10
ATOM     10  NZ  LYS A   1      29.274  13.942   9.261  0.00  0.00    +0.380 N 
ATOM     11  HZ1 LYS A   1      28.709  13.886  10.132  0.00  0.00    -0.089 HD
ATOM     12  HZ2 LYS A   1      30.185  13.461   9.406  0.00  0.00    -0.089 HD
ATOM     13  HZ3 LYS A   1      28.759  13.484   8.482  0.00  0.00    -0.089 HD
ENDBRANCH   9  10
ENDBRANCH   8   9
ENDBRANCH   1   8
TORSDOF 7
REMARK  Name = ../refined-set-2016/1hn4/1hn4_pocket.pdb
REMARK  322 active torsions:
REMARK  status: ('A' for Active; 'I' for Inactive)
REMARK    1  A    between atoms: _1  and  _5
REMARK    2  A    between atoms: _5  and  _6
REMARK    3  A    between atoms: _8  and  _10
REMARK    4  A    between atoms: _10  and  _11
REMARK    5  A    between atoms: _10  and  _13
REMARK    6  A    between atoms: _13  and  _14
REMARK    7  A    between atoms: _17  and  _19
REMARK    8  A    between atoms: _19  and  _20
REMARK    9  A    between atoms: _19  and  _22
REMARK   10  A    between atoms: _22  and  _23
REMARK   11  A    between atoms: _25  and  _27
REMARK   12  A    between atoms: _27  and  _28
REMARK   13  A    between atoms: _27  and  _30
REMARK   14  A    between atoms: _30  and  _31
REMARK   15  A    between atoms: _33  and  _35
REMARK   16  A    between atoms: _35  and  _36
REMARK   17  A    between atoms: _35  and  _38
REMARK   18  A    between atoms: _38  and  _39
REMARK   19  A    between atoms: _39  and  _40
REMARK   20  A    between atoms: _40  and  _41
REMARK   21  A    between atoms: _50  and  _52
REMARK   22  A    between atoms: _52  and  _53
REMARK   23  A    between atoms: _56  and  _58
REMARK   24  A    between atoms: _58  and  _59
REMARK   25  A    between atoms: _58  and  _61
REMARK   26  A    between atoms: _61  and  _62
REMARK   27  A    between atoms: _65  and  _67
REMARK   28  A    between atoms: _67  and  _68
REMARK   29  A    between atoms: _67  and  _70
REMARK   30  A    between atoms: _70  and  _71
REMARK   31  A    between atoms: _81  and  _83
REMARK   32  A    between atoms: _83  and  _84
REMARK   33  A    between atoms: _83  and  _86
REMARK   34  A    between atoms: _86  and  _87
REMARK   35  A    between atoms: _87  and  _88
REMARK   36  A    between atoms: _93  and  _95
REMARK   37  A    between atoms: _95  and  _96
REMARK   38  A    between atoms: _95  and  _98
REMARK   39  A    between atoms: _98  and  _99
REMARK   40  A    between atoms: _105  and  _107
REMARK   41  A    between atoms: _107  and  _108
REMARK   42  A    between atoms: _107  and  _110
REMARK   43  A    between atoms: _110  and  _111
REMARK   44  A    between atoms: _111  and  _112
REMARK   45  A    between atoms: _112  and  _113
REMARK   46  A    between atoms: _122  and  _124
REMARK   47  A    between atoms: _124  and  _125
REMARK   48  A    between atoms: _124  and  _127
REMARK   49  A    between atoms: _127  and  _128
REMARK   50  A    between atoms: _130  and  _132
REMARK   51  A    between atoms: _132  and  _133
REMARK   52  A    between atoms: _132  and  _135
REMARK   53  A    between atoms: _135  and  _136
REMARK   54  A    between atoms: _136  and  _137
REMARK   55  A    between atoms: _139  and  _141
REMARK   56  A    between atoms: _141  and  _142
REMARK   57  A    between atoms: _141  and  _144
REMARK   58  A    between atoms: _144  and  _145
REMARK   59  A    between atoms: _148  and  _150
REMARK   60  A    between atoms: _150  and  _151
REMARK   61  A    between atoms: _150  and  _153
REMARK   62  A    between atoms: _153  and  _154
REMARK   63  A    between atoms: _154  and  _155
REMARK   64  A    between atoms: _155  and  _156
REMARK   65  A    between atoms: _156  and  _157
REMARK   66  A    between atoms: _161  and  _163
REMARK   67  A    between atoms: _163  and  _164
REMARK   68  A    between atoms: _163  and  _166
REMARK   69  A    between atoms: _166  and  _167
REMARK   70  A    between atoms: _173  and  _174
REMARK   71  A    between atoms: _179  and  _181
REMARK   72  A    between atoms: _181  and  _182
REMARK   73  A    between atoms: _181  and  _184
REMARK   74  A    between atoms: _184  and  _185
REMARK   75  A    between atoms: _188  and  _190
REMARK   76  A    between atoms: _190  and  _191
REMARK   77  A    between atoms: _190  and  _193
REMARK   78  A    between atoms: _193  and  _194
REMARK   79  A    between atoms: _194  and  _195
REMARK   80  A    between atoms: _197  and  _199
REMARK   81  A    between atoms: _199  and  _200
REMARK   82  A    between atoms: _199  and  _202
REMARK   83  A    between atoms: _202  and  _203
REMARK   84  A    between atoms: _206  and  _208
REMARK   85  A    between atoms: _208  and  _209
REMARK   86  A    between atoms: _208  and  _211
REMARK   87  A    between atoms: _211  and  _212
REMARK   88  A    between atoms: _218  and  _220
REMARK   89  A    between atoms: _220  and  _221
REMARK   90  A    between atoms: _220  and  _223
REMARK   91  A    between atoms: _223  and  _224
REMARK   92  A    between atoms: _229  and  _231
REMARK   93  A    between atoms: _231  and  _232
REMARK   94  A    between atoms: _231  and  _234
REMARK   95  A    between atoms: _234  and  _235
REMARK   96  A    between atoms: _240  and  _242
REMARK   97  A    between atoms: _242  and  _243
REMARK   98  A    between atoms: _242  and  _245
REMARK   99  A    between atoms: _245  and  _246
REMARK  100  A    between atoms: _251  and  _252
REMARK  101  A    between atoms: _254  and  _256
REMARK  102  A    between atoms: _256  and  _257
REMARK  103  A    between atoms: _256  and  _259
REMARK  104  A    between atoms: _261  and  _263
REMARK  105  A    between atoms: _263  and  _264
REMARK  106  A    between atoms: _263  and  _266
REMARK  107  A    between atoms: _266  and  _267
REMARK  108  A    between atoms: _272  and  _273
REMARK  109  A    between atoms: _277  and  _280
REMARK  110  A    between atoms: _280  and  _281
REMARK  111  A    between atoms: _281  and  _354
REMARK  112  A    between atoms: _285  and  _287
REMARK  113  A    between atoms: _287  and  _289
REMARK  114  A    between atoms: _289  and  _290
REMARK  115  A    between atoms: _289  and  _292
REMARK  116  A    between atoms: _292  and  _293
REMARK  117  A    between atoms: _296  and  _298
REMARK  118  A    between atoms: _298  and  _299
REMARK  119  A    between atoms: _301  and  _303
REMARK  120  A    between atoms: _303  and  _304
REMARK  121  A    between atoms: _306  and  _308
REMARK  122  A    between atoms: _308  and  _309
REMARK  123  A    between atoms: _308  and  _311
REMARK  124  A    between atoms: _311  and  _312
REMARK  125  A    between atoms: _315  and  _317
REMARK  126  A    between atoms: _317  and  _318
REMARK  127  A    between atoms: _317  and  _320
REMARK  128  A    between atoms: _320  and  _321
REMARK  129  A    between atoms: _324  and  _326
REMARK  130  A    between atoms: _326  and  _327
REMARK  131  A    between atoms: _326  and  _329
REMARK  132  A    between atoms: _329  and  _330
REMARK  133  A    between atoms: _330  and  _331
REMARK  134  A    between atoms: _331  and  _332
REMARK  135  A    between atoms: _341  and  _343
REMARK  136  A    between atoms: _343  and  _344
REMARK  137  A    between atoms: _343  and  _346
REMARK  138  A    between atoms: _348  and  _350
REMARK  139  A    between atoms: _350  and  _351
REMARK  140  A    between atoms: _350  and  _353
REMARK  141  A    between atoms: _353  and  _354
REMARK  142  A    between atoms: _355  and  _357
REMARK  143  A    between atoms: _357  and  _358
REMARK  144  A    between atoms: _357  and  _360
REMARK  145  A    between atoms: _360  and  _361
REMARK  146  A    between atoms: _361  and  _362
REMARK  147  A    between atoms: _365  and  _367
REMARK  148  A    between atoms: _367  and  _368
REMARK  149  A    between atoms: _367  and  _370
REMARK  150  A    between atoms: _370  and  _371
REMARK  151  A    between atoms: _374  and  _376
REMARK  152  A    between atoms: _376  and  _377
REMARK  153  A    between atoms: _376  and  _379
REMARK  154  A    between atoms: _379  and  _380
REMARK  155  A    between atoms: _385  and  _387
REMARK  156  A    between atoms: _387  and  _388
REMARK  157  A    between atoms: _387  and  _390
REMARK  158  A    between atoms: _390  and  _391
REMARK  159  A    between atoms: _394  and  _396
REMARK  160  A    between atoms: _396  and  _397
REMARK  161  A    between atoms: _396  and  _399
REMARK  162  A    between atoms: _399  and  _400
REMARK  163  A    between atoms: _405  and  _407
REMARK  164  A    between atoms: _407  and  _408
REMARK  165  A    between atoms: _407  and  _410
REMARK  166  A    between atoms: _410  and  _411
REMARK  167  A    between atoms: _411  and  _480
REMARK  168  A    between atoms: _412  and  _414
REMARK  169  A    between atoms: _414  and  _415
REMARK  170  A    between atoms: _414  and  _417
REMARK  171  A    between atoms: _417  and  _418
REMARK  172  A    between atoms: _423  and  _424
REMARK  173  A    between atoms: _426  and  _428
REMARK  174  A    between atoms: _428  and  _429
REMARK  175  A    between atoms: _428  and  _431
REMARK  176  A    between atoms: _431  and  _432
REMARK  177  A    between atoms: _432  and  _433
REMARK  178  A    between atoms: _433  and  _434
REMARK  179  A    between atoms: _443  and  _445
REMARK  180  A    between atoms: _445  and  _446
REMARK  181  A    between atoms: _445  and  _448
REMARK  182  A    between atoms: _448  and  _449
REMARK  183  A    between atoms: _452  and  _454
REMARK  184  A    between atoms: _454  and  _455
REMARK  185  A    between atoms: _454  and  _457
REMARK  186  A    between atoms: _457  and  _458
REMARK  187  A    between atoms: _458  and  _459
REMARK  188  A    between atoms: _459  and  _460
REMARK  189  A    between atoms: _460  and  _461
REMARK  190  A    between atoms: _465  and  _467
REMARK  191  A    between atoms: _467  and  _468
REMARK  192  A    between atoms: _467  and  _470
REMARK  193  A    between atoms: _470  and  _471
REMARK  194  A    between atoms: _474  and  _476
REMARK  195  A    between atoms: _476  and  _477
REMARK  196  A    between atoms: _476  and  _479
REMARK  197  A    between atoms: _479  and  _480
REMARK  198  A    between atoms: _481  and  _483
REMARK  199  A    between atoms: _483  and  _484
REMARK  200  A    between atoms: _483  and  _486
REMARK  201  A    between atoms: _486  and  _487
REMARK  202  A    between atoms: _490  and  _492
REMARK  203  A    between atoms: _492  and  _493
REMARK  204  A    between atoms: _496  and  _498
REMARK  205  A    between atoms: _498  and  _499
REMARK  206  A    between atoms: _502  and  _504
REMARK  207  A    between atoms: _504  and  _505
REMARK  208  A    between atoms: _504  and  _507
REMARK  209  A    between atoms: _507  and  _508
REMARK  210  A    between atoms: _514  and  _516
REMARK  211  A    between atoms: _516  and  _517
REMARK  212  A    between atoms: _516  and  _519
REMARK  213  A    between atoms: _519  and  _520
REMARK  214  A    between atoms: _522  and  _524
REMARK  215  A    between atoms: _524  and  _525
REMARK  216  A    between atoms: _524  and  _527
REMARK  217  A    between atoms: _527  and  _528
REMARK  218  A    between atoms: _530  and  _532
REMARK  219  A    between atoms: _532  and  _533
REMARK  220  A    between atoms: _532  and  _535
REMARK  221  A    between atoms: _535  and  _536
REMARK  222  A    between atoms: _536  and  _537
REMARK  223  A    between atoms: _537  and  _538
REMARK  224  A    between atoms: _547  and  _549
REMARK  225  A    between atoms: _549  and  _550
REMARK  226  A    between atoms: _553  and  _555
REMARK  227  A    between atoms: _555  and  _556
REMARK  228  A    between atoms: _555  and  _558
REMARK  229  A    between atoms: _558  and  _559
REMARK  230  A    between atoms: _562  and  _564
REMARK  231  A    between atoms: _564  and  _565
REMARK  232  A    between atoms: _564  and  _567
REMARK  233  A    between atoms: _567  and  _568
REMARK  234  A    between atoms: _578  and  _580
REMARK  235  A    between atoms: _580  and  _581
REMARK  236  A    between atoms: _580  and  _583
REMARK  237  A    between atoms: _583  and  _584
REMARK  238  A    between atoms: _584  and  _585
REMARK  239  A    between atoms: _590  and  _592
REMARK  240  A    between atoms: _592  and  _593
REMARK  241  A    between atoms: _592  and  _595
REMARK  242  A    between atoms: _595  and  _596
REMARK  243  A    between atoms: _602  and  _604
REMARK  244  A    between atoms: _604  and  _605
REMARK  245  A    between atoms: _604  and  _607
REMARK  246  A    between atoms: _607  and  _608
REMARK  247  A    between atoms: _608  and  _609
REMARK  248  A    between atoms: _609  and  _610
REMARK  249  A    between atoms: _619  and  _621
REMARK  250  A    between atoms: _621  and  _622
REMARK  251  A    between atoms: _621  and  _624
REMARK  252  A    between atoms: _624  and  _625
REMARK  253  A    between atoms: _627  and  _629
REMARK  254  A    between atoms: _629  and  _630
REMARK  255  A    between atoms: _629  and  _632
REMARK  256  A    between atoms: _632  and  _633
REMARK  257  A    between atoms: _633  and  _634
REMARK  258  A    between atoms: _636  and  _638
REMARK  259  A    between atoms: _638  and  _639
REMARK  260  A    between atoms: _638  and  _641
REMARK  261  A    between atoms: _641  and  _642
REMARK  262  A    between atoms: _645  and  _647
REMARK  263  A    between atoms: _647  and  _648
REMARK  264  A    between atoms: _647  and  _650
REMARK  265  A    between atoms: _650  and  _651
REMARK  266  A    between atoms: _651  and  _652
REMARK  267  A    between atoms: _652  and  _653
REMARK  268  A    between atoms: _653  and  _654
REMARK  269  A    between atoms: _658  and  _660
REMARK  270  A    between atoms: _660  and  _661
REMARK  271  A    between atoms: _660  and  _663
REMARK  272  A    between atoms: _663  and  _664
REMARK  273  A    between atoms: _670  and  _671
REMARK  274  A    between atoms: _676  and  _678
REMARK  275  A    between atoms: _678  and  _679
REMARK  276  A    between atoms: _678  and  _681
REMARK  277  A    between atoms: _681  and  _682
REMARK  278  A    between atoms: _685  and  _687
REMARK  279  A    between atoms: _687  and  _688
REMARK  280  A    between atoms: _687  and  _690
REMARK  281  A    between atoms: _690  and  _691
REMARK  282  A    between atoms: _691  and  _692
REMARK  283  A    between atoms: _694  and  _696
REMARK  284  A    between atoms: _696  and  _697
REMARK  285  A    between atoms: _696  and  _699
REMARK  286  A    between atoms: _699  and  _700
REMARK  287  A    between atoms: _703  and  _705
REMARK  288  A    between atoms: _705  and  _706
REMARK  289  A    between atoms: _705  and  _708
REMARK  290  A    between atoms: _708  and  _709
REMARK  291  A    between atoms: _715  and  _717
REMARK  292  A    between atoms: _717  and  _718
REMARK  293  A    between atoms: _717  and  _720
REMARK  294  A    between atoms: _720  and  _721
REMARK  295  A    between atoms: _726  and  _728
REMARK  296  A    between atoms: _728  and  _729
REMARK  297  A    between atoms: _728  and  _731
REMARK  298  A    between atoms: _731  and  _732
REMARK  299  A    between atoms: _737  and  _739
REMARK  300  A    between atoms: _739  and  _740
REMARK  301  A    between atoms: _739  and  _742
REMARK  302  A    between atoms: _742  and  _743
REMARK  303  A    between atoms: _743  and  _755
REMARK  304  A    between atoms: _744  and  _746
REMARK  305  A    between atoms: _746  and  _747
REMARK  306  A    between atoms: _749  and  _751
REMARK  307  A    between atoms: _751  and  _752
REMARK  308  A    between atoms: _751  and  _754
REMARK  309  A    between atoms: _754  and  _755
REMARK  310  A    between atoms: _756  and  _758
REMARK  311  A    between atoms: _758  and  _759
REMARK  312  A    between atoms: _758  and  _761
REMARK  313  A    between atoms: _761  and  _762
REMARK  314  A    between atoms: _767  and  _769
REMARK  315  A    between atoms: _769  and  _770
REMARK  316  A    between atoms: _769  and  _772
REMARK  317  A    between atoms: _772  and  _773
REMARK  318  A    between atoms: _778  and  _779
REMARK  319  A    between atoms: _781  and  _783
REMARK  320  A    between atoms: _783  and  _784
REMARK  321  A    between atoms: _783  and  _786
REMARK  322  A    between atoms: _786  and  _787
REMARK                            x       y       z     vdW  Elec       q    Type
REMARK                         _______ _______ _______ _____ _____    ______ ____
ROOT
ATOM      1  CA  ILE A   1      25.373  24.536   7.113  0.00  0.00    +0.133 C 
ENDROOT
BRANCH   1   2
ATOM      2  N   ILE A   1      26.215  25.436   6.336  0.00  0.00    -0.239 NA
ATOM      3  H   ILE A   1      27.089  25.806   6.761  0.00  0.00    +0.142 HD
ENDBRANCH   1   2
BRANCH   1   4
ATOM      4  CB  ILE A   1      26.065  24.165   8.444  0.00  0.00    +0.023 C 
ATOM      5  CG2 ILE A   1      25.111  23.379   9.339  0.00  0.00    +0.002 C 
BRANCH   4   6
ATOM      6  CG1 ILE A   1      27.325  23.344   8.147  0.00  0.00    +0.002 C 
ATOM      7  CD1 ILE A   1      28.143  23.014   9.377  0.00  0.00    +0.000 C 
ENDBRANCH   4   6
ENDBRANCH   1   4
BRANCH   1   8
ATOM      8  C   ILE A   1      24.014  25.176   7.393  0.00  0.00    +0.224 C 
ATOM      9  O   ILE A   1      22.970  24.525   7.289  0.00  0.00    -0.287 OA
ENDBRANCH   1   8
TORSDOF 4
REMARK  Name = ../refined-set-2016/1hn4/1hn4_pocket.pdb
REMARK  322 active torsions:
REMARK  status: ('A' for Active; 'I' for Inactive)
REMARK    1  A    between atoms: _1  and  _5
REMARK    2  A    between atoms: _5  and  _6
REMARK    3  A    between atoms: _8  and  _10
REMARK    4  A    between atoms: _10  and  _11
REMARK    5  A    between atoms: _10  and  _13
REMARK    6  A    between atoms: _13  and  _14
REMARK    7  A    between atoms: _17  and  _19
REMARK    8  A    between atoms: _19  and  _20
REMARK    9  A    between atoms: _19  and  _22
REMARK   10  A    between atoms: _22  and  _23
REMARK   11  A    between atoms: _25  and  _27
REMARK   12  A    between atoms: _27  and  _28
REMARK   13  A    between atoms: _27  and  _30
REMARK   14  A    between atoms: _30  and  _31
REMARK   15  A    between atoms: _33  and  _35
REMARK   16  A    between atoms: _35  and  _36
REMARK   17  A    between atoms: _35  and  _38
REMARK   18  A    between atoms: _38  and  _39
REMARK   19  A    between atoms: _39  and  _40
REMARK   20  A    between atoms: _40  and  _41
REMARK   21  A    between atoms: _50  and  _52
REMARK   22  A    between atoms: _52  and  _53
REMARK   23  A    between atoms: _56  and  _58
REMARK   24  A    between atoms: _58  and  _59
REMARK   25  A    between atoms: _58  and  _61
REMARK   26  A    between atoms: _61  and  _62
REMARK   27  A    between atoms: _65  and  _67
REMARK   28  A    between atoms: _67  and  _68
REMARK   29  A    between atoms: _67  and  _70
REMARK   30  A    between atoms: _70  and  _71
REMARK   31  A    between atoms: _81  and  _83
REMARK   32  A    between atoms: _83  and  _84
REMARK   33  A    between atoms: _83  and  _86
REMARK   34  A    between atoms: _86  and  _87
REMARK   35  A    between atoms: _87  and  _88
REMARK   36  A    between atoms: _93  and  _95
REMARK   37  A    between atoms: _95  and  _96
REMARK   38  A    between atoms: _95  and  _98
REMARK   39  A    between atoms: _98  and  _99
REMARK   40  A    between atoms: _105  and  _107
REMARK   41  A    between atoms: _107  and  _108
REMARK   42  A    between atoms: _107  and  _110
REMARK   43  A    between atoms: _110  and  _111
REMARK   44  A    between atoms: _111  and  _112
REMARK   45  A    between atoms: _112  and  _113
REMARK   46  A    between atoms: _122  and  _124
REMARK   47  A    between atoms: _124  and  _125
REMARK   48  A    between atoms: _124  and  _127
REMARK   49  A    between atoms: _127  and  _128
REMARK   50  A    between atoms: _130  and  _132
REMARK   51  A    between atoms: _132  and  _133
REMARK   52  A    between atoms: _132  and  _135
REMARK   53  A    between atoms: _135  and  _136
REMARK   54  A    between atoms: _136  and  _137
REMARK   55  A    between atoms: _139  and  _141
REMARK   56  A    between atoms: _141  and  _142
REMARK   57  A    between atoms: _141  and  _144
REMARK   58  A    between atoms: _144  and  _145
REMARK   59  A    between atoms: _148  and  _150
REMARK   60  A    between atoms: _150  and  _151
REMARK   61  A    between atoms: _150  and  _153
REMARK   62  A    between atoms: _153  and  _154
REMARK   63  A    between atoms: _154  and  _155
REMARK   64  A    between atoms: _155  and  _156
REMARK   65  A    between atoms: _156  and  _157
REMARK   66  A    between atoms: _161  and  _163
REMARK   67  A    between atoms: _163  and  _164
REMARK   68  A    between atoms: _163  and  _166
REMARK   69  A    between atoms: _166  and  _167
REMARK   70  A    between atoms: _173  and  _174
REMARK   71  A    between atoms: _179  and  _181
REMARK   72  A    between atoms: _181  and  _182
REMARK   73  A    between atoms: _181  and  _184
REMARK   74  A    between atoms: _184  and  _185
REMARK   75  A    between atoms: _188  and  _190
REMARK   76  A    between atoms: _190  and  _191
REMARK   77  A    between atoms: _190  and  _193
REMARK   78  A    between atoms: _193  and  _194
REMARK   79  A    between atoms: _194  and  _195
REMARK   80  A    between atoms: _197  and  _199
REMARK   81  A    between atoms: _199  and  _200
REMARK   82  A    between atoms: _199  and  _202
REMARK   83  A    between atoms: _202  and  _203
REMARK   84  A    between atoms: _206  and  _208
REMARK   85  A    between atoms: _208  and  _209
REMARK   86  A    between atoms: _208  and  _211
REMARK   87  A    between atoms: _211  and  _212
REMARK   88  A    between atoms: _218  and  _220
REMARK   89  A    between atoms: _220  and  _221
REMARK   90  A    between atoms: _220  and  _223
REMARK   91  A    between atoms: _223  and  _224
REMARK   92  A    between atoms: _229  and  _231
REMARK   93  A    between atoms: _231  and  _232
REMARK   94  A    between atoms: _231  and  _234
REMARK   95  A    between atoms: _234  and  _235
REMARK   96  A    between atoms: _240  and  _242
REMARK   97  A    between atoms: _242  and  _243
REMARK   98  A    between atoms: _242  and  _245
REMARK   99  A    between atoms: _245  and  _246
REMARK  100  A    between atoms: _251  and  _252
REMARK  101  A    between atoms: _254  and  _256
REMARK  102  A    between atoms: _256  and  _257
REMARK  103  A    between atoms: _256  and  _259
REMARK  104  A    between atoms: _261  and  _263
REMARK  105  A    between atoms: _263  and  _264
REMARK  106  A    between atoms: _263  and  _266
REMARK  107  A    between atoms: _266  and  _267
REMARK  108  A    between atoms: _272  and  _273
REMARK  109  A    between atoms: _277  and  _280
REMARK  110  A    between atoms: _280  and  _281
REMARK  111  A    between atoms: _281  and  _354
REMARK  112  A    between atoms: _285  and  _287
REMARK  113  A    between atoms: _287  and  _289
REMARK  114  A    between atoms: _289  and  _290
REMARK  115  A    between atoms: _289  and  _292
REMARK  116  A    between atoms: _292  and  _293
REMARK  117  A    between atoms: _296  and  _298
REMARK  118  A    between atoms: _298  and  _299
REMARK  119  A    between atoms: _301  and  _303
REMARK  120  A    between atoms: _303  and  _304
REMARK  121  A    between atoms: _306  and  _308
REMARK  122  A    between atoms: _308  and  _309
REMARK  123  A    between atoms: _308  and  _311
REMARK  124  A    between atoms: _311  and  _312
REMARK  125  A    between atoms: _315  and  _317
REMARK  126  A    between atoms: _317  and  _318
REMARK  127  A    between atoms: _317  and  _320
REMARK  128  A    between atoms: _320  and  _321
REMARK  129  A    between atoms: _324  and  _326
REMARK  130  A    between atoms: _326  and  _327
REMARK  131  A    between atoms: _326  and  _329
REMARK  132  A    between atoms: _329  and  _330
REMARK  133  A    between atoms: _330  and  _331
REMARK  134  A    between atoms: _331  and  _332
REMARK  135  A    between atoms: _341  and  _343
REMARK  136  A    between atoms: _343  and  _344
REMARK  137  A    between atoms: _343  and  _346
REMARK  138  A    between atoms: _348  and  _350
REMARK  139  A    between atoms: _350  and  _351
REMARK  140  A    between atoms: _350  and  _353
REMARK  141  A    between atoms: _353  and  _354
REMARK  142  A    between atoms: _355  and  _357
REMARK  143  A    between atoms: _357  and  _358
REMARK  144  A    between atoms: _357  and  _360
REMARK  145  A    between atoms: _360  and  _361
REMARK  146  A    between atoms: _361  and  _362
REMARK  147  A    between atoms: _365  and  _367
REMARK  148  A    between atoms: _367  and  _368
REMARK  149  A    between atoms: _367  and  _370
REMARK  150  A    between atoms: _370  and  _371
REMARK  151  A    between atoms: _374  and  _376
REMARK  152  A    between atoms: _376  and  _377
REMARK  153  A    between atoms: _376  and  _379
REMARK  154  A    between atoms: _379  and  _380
REMARK  155  A    between atoms: _385  and  _387
REMARK  156  A    between atoms: _387  and  _388
REMARK  157  A    between atoms: _387  and  _390
REMARK  158  A    between atoms: _390  and  _391
REMARK  159  A    between atoms: _394  and  _396
REMARK  160  A    between atoms: _396  and  _397
REMARK  161  A    between atoms: _396  and  _399
REMARK  162  A    between atoms: _399  and  _400
REMARK  163  A    between atoms: _405  and  _407
REMARK  164  A    between atoms: _407  and  _408
REMARK  165  A    between atoms: _407  and  _410
REMARK  166  A    between atoms: _410  and  _411
REMARK  167  A    between atoms: _411  and  _480
REMARK  168  A    between atoms: _412  and  _414
REMARK  169  A    between atoms: _414  and  _415
REMARK  170  A    between atoms: _414  and  _417
REMARK  171  A    between atoms: _417  and  _418
REMARK  172  A    between atoms: _423  and  _424
REMARK  173  A    between atoms: _426  and  _428
REMARK  174  A    between atoms: _428  and  _429
REMARK  175  A    between atoms: _428  and  _431
REMARK  176  A    between atoms: _431  and  _432
REMARK  177  A    between atoms: _432  and  _433
REMARK  178  A    between atoms: _433  and  _434
REMARK  179  A    between atoms: _443  and  _445
REMARK  180  A    between atoms: _445  and  _446
REMARK  181  A    between atoms: _445  and  _448
REMARK  182  A    between atoms: _448  and  _449
REMARK  183  A    between atoms: _452  and  _454
REMARK  184  A    between atoms: _454  and  _455
REMARK  185  A    between atoms: _454  and  _457
REMARK  186  A    between atoms: _457  and  _458
REMARK  187  A    between atoms: _458  and  _459
REMARK  188  A    between atoms: _459  and  _460
REMARK  189  A    between atoms: _460  and  _461
REMARK  190  A    between atoms: _465  and  _467
REMARK  191  A    between atoms: _467  and  _468
REMARK  192  A    between atoms: _467  and  _470
REMARK  193  A    between atoms: _470  and  _471
REMARK  194  A    between atoms: _474  and  _476
REMARK  195  A    between atoms: _476  and  _477
REMARK  196  A    between atoms: _476  and  _479
REMARK  197  A    between atoms: _479  and  _480
REMARK  198  A    between atoms: _481  and  _483
REMARK  199  A    between atoms: _483  and  _484
REMARK  200  A    between atoms: _483  and  _486
REMARK  201  A    between atoms: _486  and  _487
REMARK  202  A    between atoms: _490  and  _492
REMARK  203  A    between atoms: _492  and  _493
REMARK  204  A    between atoms: _496  and  _498
REMARK  205  A    between atoms: _498  and  _499
REMARK  206  A    between atoms: _502  and  _504
REMARK  207  A    between atoms: _504  and  _505
REMARK  208  A    between atoms: _504  and  _507
REMARK  209  A    between atoms: _507  and  _508
REMARK  210  A    between atoms: _514  and  _516
REMARK  211  A    between atoms: _516  and  _517
REMARK  212  A    between atoms: _516  and  _519
REMARK  213  A    between atoms: _519  and  _520
REMARK  214  A    between atoms: _522  and  _524
REMARK  215  A    between atoms: _524  and  _525
REMARK  216  A    between atoms: _524  and  _527
REMARK  217  A    between atoms: _527  and  _528
REMARK  218  A    between atoms: _530  and  _532
REMARK  219  A    between atoms: _532  and  _533
REMARK  220  A    between atoms: _532  and  _535
REMARK  221  A    between atoms: _535  and  _536
REMARK  222  A    between atoms: _536  and  _537
REMARK  223  A    between atoms: _537  and  _538
REMARK  224  A    between atoms: _547  and  _549
REMARK  225  A    between atoms: _549  and  _550
REMARK  226  A    between atoms: _553  and  _555
REMARK  227  A    between atoms: _555  and  _556
REMARK  228  A    between atoms: _555  and  _558
REMARK  229  A    between atoms: _558  and  _559
REMARK  230  A    between atoms: _562  and  _564
REMARK  231  A    between atoms: _564  and  _565
REMARK  232  A    between atoms: _564  and  _567
REMARK  233  A    between atoms: _567  and  _568
REMARK  234  A    between atoms: _578  and  _580
REMARK  235  A    between atoms: _580  and  _581
REMARK  236  A    between atoms: _580  and  _583
REMARK  237  A    between atoms: _583  and  _584
REMARK  238  A    between atoms: _584  and  _585
REMARK  239  A    between atoms: _590  and  _592
REMARK  240  A    between atoms: _592  and  _593
REMARK  241  A    between atoms: _592  and  _595
REMARK  242  A    between atoms: _595  and  _596
REMARK  243  A    between atoms: _602  and  _604
REMARK  244  A    between atoms: _604  and  _605
REMARK  245  A    between atoms: _604  and  _607
REMARK  246  A    between atoms: _607  and  _608
REMARK  247  A    between atoms: _608  and  _609
REMARK  248  A    between atoms: _609  and  _610
REMARK  249  A    between atoms: _619  and  _621
REMARK  250  A    between atoms: _621  and  _622
REMARK  251  A    between atoms: _621  and  _624
REMARK  252  A    between atoms: _624  and  _625
REMARK  253  A    between atoms: _627  and  _629
REMARK  254  A    between atoms: _629  and  _630
REMARK  255  A    between atoms: _629  and  _632
REMARK  256  A    between atoms: _632  and  _633
REMARK  257  A    between atoms: _633  and  _634
REMARK  258  A    between atoms: _636  and  _638
REMARK  259  A    between atoms: _638  and  _639
REMARK  260  A    between atoms: _638  and  _641
REMARK  261  A    between atoms: _641  and  _642
REMARK  262  A    between atoms: _645  and  _647
REMARK  263  A    between atoms: _647  and  _648
REMARK  264  A    between atoms: _647  and  _650
REMARK  265  A    between atoms: _650  and  _651
REMARK  266  A    between atoms: _651  and  _652
REMARK  267  A    between atoms: _652  and  _653
REMARK  268  A    between atoms: _653  and  _654
REMARK  269  A    between atoms: _658  and  _660
REMARK  270  A    between atoms: _660  and  _661
REMARK  271  A    between atoms: _660  and  _663
REMARK  272  A    between atoms: _663  and  _664
REMARK  273  A    between atoms: _670  and  _671
REMARK  274  A    between atoms: _676  and  _678
REMARK  275  A    between atoms: _678  and  _679
REMARK  276  A    between atoms: _678  and  _681
REMARK  277  A    between atoms: _681  and  _682
REMARK  278  A    between atoms: _685  and  _687
REMARK  279  A    between atoms: _687  and  _688
REMARK  280  A    between atoms: _687  and  _690
REMARK  281  A    between atoms: _690  and  _691
REMARK  282  A    between atoms: _691  and  _692
REMARK  283  A    between atoms: _694  and  _696
REMARK  284  A    between atoms: _696  and  _697
REMARK  285  A    between atoms: _696  and  _699
REMARK  286  A    between atoms: _699  and  _700
REMARK  287  A    between atoms: _703  and  _705
REMARK  288  A    between atoms: _705  and  _706
REMARK  289  A    between atoms: _705  and  _708
REMARK  290  A    between atoms: _708  and  _709
REMARK  291  A    between atoms: _715  and  _717
REMARK  292  A    between atoms: _717  and  _718
REMARK  293  A    between atoms: _717  and  _720
REMARK  294  A    between atoms: _720  and  _721
REMARK  295  A    between atoms: _726  and  _728
REMARK  296  A    between atoms: _728  and  _729
REMARK  297  A    between atoms: _728  and  _731
REMARK  298  A    between atoms: _731  and  _732
REMARK  299  A    between atoms: _737  and  _739
REMARK  300  A    between atoms: _739  and  _740
REMARK  301  A    between atoms: _739  and  _742
REMARK  302  A    between atoms: _742  and  _743
REMARK  303  A    between atoms: _743  and  _755
REMARK  304  A    between atoms: _744  and  _746
REMARK  305  A    between atoms: _746  and  _747
REMARK  306  A    between atoms: _749  and  _751
REMARK  307  A    between atoms: _751  and  _752
REMARK  308  A    between atoms: _751  and  _754
REMARK  309  A    between atoms: _754  and  _755
REMARK  310  A    between atoms: _756  and  _758
REMARK  311  A    between atoms: _758  and  _759
REMARK  312  A    between atoms: _758  and  _761
REMARK  313  A    between atoms: _761  and  _762
REMARK  314  A    between atoms: _767  and  _769
REMARK  315  A    between atoms: _769  and  _770
REMARK  316  A    between atoms: _769  and  _772
REMARK  317  A    between atoms: _772  and  _773
REMARK  318  A    between atoms: _778  and  _779
REMARK  319  A    between atoms: _781  and  _783
REMARK  320  A    between atoms: _783  and  _784
REMARK  321  A    between atoms: _783  and  _786
REMARK  322  A    between atoms: _786  and  _787
REMARK                            x       y       z     vdW  Elec       q    Type
REMARK                         _______ _______ _______ _____ _____    ______ ____
ROOT
ATOM      1  C   ALA A   1      14.244  21.895   5.100  0.00  0.00    +0.238 C 
ATOM      2  N   ALA A   2      14.300  22.879   5.993  0.00  0.00    -0.298 N 
ATOM      3  H   ALA A   2      15.210  23.343   6.189  0.00  0.00    +0.150 HD
ATOM      4  O   ALA A   1      13.199  21.309   4.828  0.00  0.00    -0.274 OA
ENDROOT
BRANCH   1   5
ATOM      5  CA  ALA A   1      15.548  21.509   4.411  0.00  0.00    +0.145 C 
ATOM      6  CB  ALA A   1      16.430  20.709   5.368  0.00  0.00    +0.028 C 
BRANCH   5   7
ATOM      7  N   ALA A   1      16.269  22.675   3.924  0.00  0.00    -0.238 NA
ATOM      8  H   ALA A   1      17.185  22.925   4.349  0.00  0.00    +0.142 HD
ENDBRANCH   5   7
ENDBRANCH   1   5
BRANCH   2   9
ATOM      9  CA  ALA A   2      13.101  23.316   6.702  0.00  0.00    +0.137 C 
ATOM     10  CB  ALA A   2      13.448  24.442   7.680  0.00  0.00    +0.030 C 
BRANCH   9  11
ATOM     11  C   ALA A   2      12.030  23.780   5.714  0.00  0.00    +0.227 C 
ATOM     12  O   ALA A   2      10.855  23.438   5.848  0.00  0.00    -0.286 OA
ENDBRANCH   9  11
ENDBRANCH   2   9
TORSDOF 4
REMARK  Name = ../refined-set-2016/1hn4/1hn4_pocket.pdb
REMARK  322 active torsions:
REMARK  status: ('A' for Active; 'I' for Inactive)
REMARK    1  A    between atoms: _1  and  _5
REMARK    2  A    between atoms: _5  and  _6
REMARK    3  A    between atoms: _8  and  _10
REMARK    4  A    between atoms: _10  and  _11
REMARK    5  A    between atoms: _10  and  _13
REMARK    6  A    between atoms: _13  and  _14
REMARK    7  A    between atoms: _17  and  _19
REMARK    8  A    between atoms: _19  and  _20
REMARK    9  A    between atoms: _19  and  _22
REMARK   10  A    between atoms: _22  and  _23
REMARK   11  A    between atoms: _25  and  _27
REMARK   12  A    between atoms: _27  and  _28
REMARK   13  A    between atoms: _27  and  _30
REMARK   14  A    between atoms: _30  and  _31
REMARK   15  A    between atoms: _33  and  _35
REMARK   16  A    between atoms: _35  and  _36
REMARK   17  A    between atoms: _35  and  _38
REMARK   18  A    between atoms: _38  and  _39
REMARK   19  A    between atoms: _39  and  _40
REMARK   20  A    between atoms: _40  and  _41
REMARK   21  A    between atoms: _50  and  _52
REMARK   22  A    between atoms: _52  and  _53
REMARK   23  A    between atoms: _56  and  _58
REMARK   24  A    between atoms: _58  and  _59
REMARK   25  A    between atoms: _58  and  _61
REMARK   26  A    between atoms: _61  and  _62
REMARK   27  A    between atoms: _65  and  _67
REMARK   28  A    between atoms: _67  and  _68
REMARK   29  A    between atoms: _67  and  _70
REMARK   30  A    between atoms: _70  and  _71
REMARK   31  A    between atoms: _81  and  _83
REMARK   32  A    between atoms: _83  and  _84
REMARK   33  A    between atoms: _83  and  _86
REMARK   34  A    between atoms: _86  and  _87
REMARK   35  A    between atoms: _87  and  _88
REMARK   36  A    between atoms: _93  and  _95
REMARK   37  A    between atoms: _95  and  _96
REMARK   38  A    between atoms: _95  and  _98
REMARK   39  A    between atoms: _98  and  _99
REMARK   40  A    between atoms: _105  and  _107
REMARK   41  A    between atoms: _107  and  _108
REMARK   42  A    between atoms: _107  and  _110
REMARK   43  A    between atoms: _110  and  _111
REMARK   44  A    between atoms: _111  and  _112
REMARK   45  A    between atoms: _112  and  _113
REMARK   46  A    between atoms: _122  and  _124
REMARK   47  A    between atoms: _124  and  _125
REMARK   48  A    between atoms: _124  and  _127
REMARK   49  A    between atoms: _127  and  _128
REMARK   50  A    between atoms: _130  and  _132
REMARK   51  A    between atoms: _132  and  _133
REMARK   52  A    between atoms: _132  and  _135
REMARK   53  A    between atoms: _135  and  _136
REMARK   54  A    between atoms: _136  and  _137
REMARK   55  A    between atoms: _139  and  _141
REMARK   56  A    between atoms: _141  and  _142
REMARK   57  A    between atoms: _141  and  _144
REMARK   58  A    between atoms: _144  and  _145
REMARK   59  A    between atoms: _148  and  _150
REMARK   60  A    between atoms: _150  and  _151
REMARK   61  A    between atoms: _150  and  _153
REMARK   62  A    between atoms: _153  and  _154
REMARK   63  A    between atoms: _154  and  _155
REMARK   64  A    between atoms: _155  and  _156
REMARK   65  A    between atoms: _156  and  _157
REMARK   66  A    between atoms: _161  and  _163
REMARK   67  A    between atoms: _163  and  _164
REMARK   68  A    between atoms: _163  and  _166
REMARK   69  A    between atoms: _166  and  _167
REMARK   70  A    between atoms: _173  and  _174
REMARK   71  A    between atoms: _179  and  _181
REMARK   72  A    between atoms: _181  and  _182
REMARK   73  A    between atoms: _181  and  _184
REMARK   74  A    between atoms: _184  and  _185
REMARK   75  A    between atoms: _188  and  _190
REMARK   76  A    between atoms: _190  and  _191
REMARK   77  A    between atoms: _190  and  _193
REMARK   78  A    between atoms: _193  and  _194
REMARK   79  A    between atoms: _194  and  _195
REMARK   80  A    between atoms: _197  and  _199
REMARK   81  A    between atoms: _199  and  _200
REMARK   82  A    between atoms: _199  and  _202
REMARK   83  A    between atoms: _202  and  _203
REMARK   84  A    between atoms: _206  and  _208
REMARK   85  A    between atoms: _208  and  _209
REMARK   86  A    between atoms: _208  and  _211
REMARK   87  A    between atoms: _211  and  _212
REMARK   88  A    between atoms: _218  and  _220
REMARK   89  A    between atoms: _220  and  _221
REMARK   90  A    between atoms: _220  and  _223
REMARK   91  A    between atoms: _223  and  _224
REMARK   92  A    between atoms: _229  and  _231
REMARK   93  A    between atoms: _231  and  _232
REMARK   94  A    between atoms: _231  and  _234
REMARK   95  A    between atoms: _234  and  _235
REMARK   96  A    between atoms: _240  and  _242
REMARK   97  A    between atoms: _242  and  _243
REMARK   98  A    between atoms: _242  and  _245
REMARK   99  A    between atoms: _245  and  _246
REMARK  100  A    between atoms: _251  and  _252
REMARK  101  A    between atoms: _254  and  _256
REMARK  102  A    between atoms: _256  and  _257
REMARK  103  A    between atoms: _256  and  _259
REMARK  104  A    between atoms: _261  and  _263
REMARK  105  A    between atoms: _263  and  _264
REMARK  106  A    between atoms: _263  and  _266
REMARK  107  A    between atoms: _266  and  _267
REMARK  108  A    between atoms: _272  and  _273
REMARK  109  A    between atoms: _277  and  _280
REMARK  110  A    between atoms: _280  and  _281
REMARK  111  A    between atoms: _281  and  _354
REMARK  112  A    between atoms: _285  and  _287
REMARK  113  A    between atoms: _287  and  _289
REMARK  114  A    between atoms: _289  and  _290
REMARK  115  A    between atoms: _289  and  _292
REMARK  116  A    between atoms: _292  and  _293
REMARK  117  A    between atoms: _296  and  _298
REMARK  118  A    between atoms: _298  and  _299
REMARK  119  A    between atoms: _301  and  _303
REMARK  120  A    between atoms: _303  and  _304
REMARK  121  A    between atoms: _306  and  _308
REMARK  122  A    between atoms: _308  and  _309
REMARK  123  A    between atoms: _308  and  _311
REMARK  124  A    between atoms: _311  and  _312
REMARK  125  A    between atoms: _315  and  _317
REMARK  126  A    between atoms: _317  and  _318
REMARK  127  A    between atoms: _317  and  _320
REMARK  128  A    between atoms: _320  and  _321
REMARK  129  A    between atoms: _324  and  _326
REMARK  130  A    between atoms: _326  and  _327
REMARK  131  A    between atoms: _326  and  _329
REMARK  132  A    between atoms: _329  and  _330
REMARK  133  A    between atoms: _330  and  _331
REMARK  134  A    between atoms: _331  and  _332
REMARK  135  A    between atoms: _341  and  _343
REMARK  136  A    between atoms: _343  and  _344
REMARK  137  A    between atoms: _343  and  _346
REMARK  138  A    between atoms: _348  and  _350
REMARK  139  A    between atoms: _350  and  _351
REMARK  140  A    between atoms: _350  and  _353
REMARK  141  A    between atoms: _353  and  _354
REMARK  142  A    between atoms: _355  and  _357
REMARK  143  A    between atoms: _357  and  _358
REMARK  144  A    between atoms: _357  and  _360
REMARK  145  A    between atoms: _360  and  _361
REMARK  146  A    between atoms: _361  and  _362
REMARK  147  A    between atoms: _365  and  _367
REMARK  148  A    between atoms: _367  and  _368
REMARK  149  A    between atoms: _367  and  _370
REMARK  150  A    between atoms: _370  and  _371
REMARK  151  A    between atoms: _374  and  _376
REMARK  152  A    between atoms: _376  and  _377
REMARK  153  A    between atoms: _376  and  _379
REMARK  154  A    between atoms: _379  and  _380
REMARK  155  A    between atoms: _385  and  _387
REMARK  156  A    between atoms: _387  and  _388
REMARK  157  A    between atoms: _387  and  _390
REMARK  158  A    between atoms: _390  and  _391
REMARK  159  A    between atoms: _394  and  _396
REMARK  160  A    between atoms: _396  and  _397
REMARK  161  A    between atoms: _396  and  _399
REMARK  162  A    between atoms: _399  and  _400
REMARK  163  A    between atoms: _405  and  _407
REMARK  164  A    between atoms: _407  and  _408
REMARK  165  A    between atoms: _407  and  _410
REMARK  166  A    between atoms: _410  and  _411
REMARK  167  A    between atoms: _411  and  _480
REMARK  168  A    between atoms: _412  and  _414
REMARK  169  A    between atoms: _414  and  _415
REMARK  170  A    between atoms: _414  and  _417
REMARK  171  A    between atoms: _417  and  _418
REMARK  172  A    between atoms: _423  and  _424
REMARK  173  A    between atoms: _426  and  _428
REMARK  174  A    between atoms: _428  and  _429
REMARK  175  A    between atoms: _428  and  _431
REMARK  176  A    between atoms: _431  and  _432
REMARK  177  A    between atoms: _432  and  _433
REMARK  178  A    between atoms: _433  and  _434
REMARK  179  A    between atoms: _443  and  _445
REMARK  180  A    between atoms: _445  and  _446
REMARK  181  A    between atoms: _445  and  _448
REMARK  182  A    between atoms: _448  and  _449
REMARK  183  A    between atoms: _452  and  _454
REMARK  184  A    between atoms: _454  and  _455
REMARK  185  A    between atoms: _454  and  _457
REMARK  186  A    between atoms: _457  and  _458
REMARK  187  A    between atoms: _458  and  _459
REMARK  188  A    between atoms: _459  and  _460
REMARK  189  A    between atoms: _460  and  _461
REMARK  190  A    between atoms: _465  and  _467
REMARK  191  A    between atoms: _467  and  _468
REMARK  192  A    between atoms: _467  and  _470
REMARK  193  A    between atoms: _470  and  _471
REMARK  194  A    between atoms: _474  and  _476
REMARK  195  A    between atoms: _476  and  _477
REMARK  196  A    between atoms: _476  and  _479
REMARK  197  A    between atoms: _479  and  _480
REMARK  198  A    between atoms: _481  and  _483
REMARK  199  A    between atoms: _483  and  _484
REMARK  200  A    between atoms: _483  and  _486
REMARK  201  A    between atoms: _486  and  _487
REMARK  202  A    between atoms: _490  and  _492
REMARK  203  A    between atoms: _492  and  _493
REMARK  204  A    between atoms: _496  and  _498
REMARK  205  A    between atoms: _498  and  _499
REMARK  206  A    between atoms: _502  and  _504
REMARK  207  A    between atoms: _504  and  _505
REMARK  208  A    between atoms: _504  and  _507
REMARK  209  A    between atoms: _507  and  _508
REMARK  210  A    between atoms: _514  and  _516
REMARK  211  A    between atoms: _516  and  _517
REMARK  212  A    between atoms: _516  and  _519
REMARK  213  A    between atoms: _519  and  _520
REMARK  214  A    between atoms: _522  and  _524
REMARK  215  A    between atoms: _524  and  _525
REMARK  216  A    between atoms: _524  and  _527
REMARK  217  A    between atoms: _527  and  _528
REMARK  218  A    between atoms: _530  and  _532
REMARK  219  A    between atoms: _532  and  _533
REMARK  220  A    between atoms: _532  and  _535
REMARK  221  A    between atoms: _535  and  _536
REMARK  222  A    between atoms: _536  and  _537
REMARK  223  A    between atoms: _537  and  _538
REMARK  224  A    between atoms: _547  and  _549
REMARK  225  A    between atoms: _549  and  _550
REMARK  226  A    between atoms: _553  and  _555
REMARK  227  A    between atoms: _555  and  _556
REMARK  228  A    between atoms: _555  and  _558
REMARK  229  A    between atoms: _558  and  _559
REMARK  230  A    between atoms: _562  and  _564
REMARK  231  A    between atoms: _564  and  _565
REMARK  232  A    between atoms: _564  and  _567
REMARK  233  A    between atoms: _567  and  _568
REMARK  234  A    between atoms: _578  and  _580
REMARK  235  A    between atoms: _580  and  _581
REMARK  236  A    between atoms: _580  and  _583
REMARK  237  A    between atoms: _583  and  _584
REMARK  238  A    between atoms: _584  and  _585
REMARK  239  A    between atoms: _590  and  _592
REMARK  240  A    between atoms: _592  and  _593
REMARK  241  A    between atoms: _592  and  _595
REMARK  242  A    between atoms: _595  and  _596
REMARK  243  A    between atoms: _602  and  _604
REMARK  244  A    between atoms: _604  and  _605
REMARK  245  A    between atoms: _604  and  _607
REMARK  246  A    between atoms: _607  and  _608
REMARK  247  A    between atoms: _608  and  _609
REMARK  248  A    between atoms: _609  and  _610
REMARK  249  A    between atoms: _619  and  _621
REMARK  250  A    between atoms: _621  and  _622
REMARK  251  A    between atoms: _621  and  _624
REMARK  252  A    between atoms: _624  and  _625
REMARK  253  A    between atoms: _627  and  _629
REMARK  254  A    between atoms: _629  and  _630
REMARK  255  A    between atoms: _629  and  _632
REMARK  256  A    between atoms: _632  and  _633
REMARK  257  A    between atoms: _633  and  _634
REMARK  258  A    between atoms: _636  and  _638
REMARK  259  A    between atoms: _638  and  _639
REMARK  260  A    between atoms: _638  and  _641
REMARK  261  A    between atoms: _641  and  _642
REMARK  262  A    between atoms: _645  and  _647
REMARK  263  A    between atoms: _647  and  _648
REMARK  264  A    between atoms: _647  and  _650
REMARK  265  A    between atoms: _650  and  _651
REMARK  266  A    between atoms: _651  and  _652
REMARK  267  A    between atoms: _652  and  _653
REMARK  268  A    between atoms: _653  and  _654
REMARK  269  A    between atoms: _658  and  _660
REMARK  270  A    between atoms: _660  and  _661
REMARK  271  A    between atoms: _660  and  _663
REMARK  272  A    between atoms: _663  and  _664
REMARK  273  A    between atoms: _670  and  _671
REMARK  274  A    between atoms: _676  and  _678
REMARK  275  A    between atoms: _678  and  _679
REMARK  276  A    between atoms: _678  and  _681
REMARK  277  A    between atoms: _681  and  _682
REMARK  278  A    between atoms: _685  and  _687
REMARK  279  A    between atoms: _687  and  _688
REMARK  280  A    between atoms: _687  and  _690
REMARK  281  A    between atoms: _690  and  _691
REMARK  282  A    between atoms: _691  and  _692
REMARK  283  A    between atoms: _694  and  _696
REMARK  284  A    between atoms: _696  and  _697
REMARK  285  A    between atoms: _696  and  _699
REMARK  286  A    between atoms: _699  and  _700
REMARK  287  A    between atoms: _703  and  _705
REMARK  288  A    between atoms: _705  and  _706
REMARK  289  A    between atoms: _705  and  _708
REMARK  290  A    between atoms: _708  and  _709
REMARK  291  A    between atoms: _715  and  _717
REMARK  292  A    between atoms: _717  and  _718
REMARK  293  A    between atoms: _717  and  _720
REMARK  294  A    between atoms: _720  and  _721
REMARK  295  A    between atoms: _726  and  _728
REMARK  296  A    between atoms: _728  and  _729
REMARK  297  A    between atoms: _728  and  _731
REMARK  298  A    between atoms: _731  and  _732
REMARK  299  A    between atoms: _737  and  _739
REMARK  300  A    between atoms: _739  and  _740
REMARK  301  A    between atoms: _739  and  _742
REMARK  302  A    between atoms: _742  and  _743
REMARK  303  A    between atoms: _743  and  _755
REMARK  304  A    between atoms: _744  and  _746
REMARK  305  A    between atoms: _746  and  _747
REMARK  306  A    between atoms: _749  and  _751
REMARK  307  A    between atoms: _751  and  _752
REMARK  308  A    between atoms: _751  and  _754
REMARK  309  A    between atoms: _754  and  _755
REMARK  310  A    between atoms: _756  and  _758
REMARK  311  A    between atoms: _758  and  _759
REMARK  312  A    between atoms: _758  and  _761
REMARK  313  A    between atoms: _761  and  _762
REMARK  314  A    between atoms: _767  and  _769
REMARK  315  A    between atoms: _769  and  _770
REMARK  316  A    between atoms: _769  and  _772
REMARK  317  A    between atoms: _772  and  _773
REMARK  318  A    between atoms: _778  and  _779
REMARK  319  A    between atoms: _781  and  _783
REMARK  320  A    between atoms: _783  and  _784
REMARK  321  A    between atoms: _783  and  _786
REMARK  322  A    between atoms: _786  and  _787
REMARK                            x       y       z     vdW  Elec       q    Type
REMARK                         _______ _______ _______ _____ _____    ______ ____
ROOT
ATOM      1  CB  PHE A   1      10.191  20.057   6.189  0.00  0.00    +0.051 C 
ENDROOT
BRANCH   1   2
ATOM      2  CG  PHE A   1      11.390  19.179   6.427  0.00  0.00    -0.020 A 
ATOM      3  CD2 PHE A   1      11.824  18.953   7.732  0.00  0.00    -0.004 A 
ATOM      4  CE2 PHE A   1      12.946  18.177   7.991  0.00  0.00    -0.000 A 
ATOM      5  CZ  PHE A   1      13.653  17.614   6.936  0.00  0.00    -0.000 A 
ATOM      6  CE1 PHE A   1      13.230  17.830   5.624  0.00  0.00    -0.000 A 
ATOM      7  CD1 PHE A   1      12.101  18.609   5.376  0.00  0.00    -0.004 A 
ENDBRANCH   1   2
BRANCH   1   8
ATOM      8  CA  PHE A   1       9.685  20.084   4.740  0.00  0.00    +0.137 C 
BRANCH   8   9
ATOM      9  N   PHE A   1      10.622  20.798   3.871  0.00  0.00    -0.239 NA
ATOM     10  H   PHE A   1      11.509  21.162   4.274  0.00  0.00    +0.142 HD
ENDBRANCH   8   9
BRANCH   8  11
ATOM     11  C   PHE A   1       8.324  20.771   4.752  0.00  0.00    +0.224 C 
ATOM     12  O   PHE A   1       7.279  20.118   4.709  0.00  0.00    -0.287 OA
ENDBRANCH   8  11
ENDBRANCH   1   8
TORSDOF 4
REMARK  Name = ../refined-set-2016/1hn4/1hn4_pocket.pdb
REMARK  322 active torsions:
REMARK  status: ('A' for Active; 'I' for Inactive)
REMARK    1  A    between atoms: _1  and  _5
REMARK    2  A    between atoms: _5  and  _6
REMARK    3  A    between atoms: _8  and  _10
REMARK    4  A    between atoms: _10  and  _11
REMARK    5  A    between atoms: _10  and  _13
REMARK    6  A    between atoms: _13  and  _14
REMARK    7  A    between atoms: _17  and  _19
REMARK    8  A    between atoms: _19  and  _20
REMARK    9  A    between atoms: _19  and  _22
REMARK   10  A    between atoms: _22  and  _23
REMARK   11  A    between atoms: _25  and  _27
REMARK   12  A    between atoms: _27  and  _28
REMARK   13  A    between atoms: _27  and  _30
REMARK   14  A    between atoms: _30  and  _31
REMARK   15  A    between atoms: _33  and  _35
REMARK   16  A    between atoms: _35  and  _36
REMARK   17  A    between atoms: _35  and  _38
REMARK   18  A    between atoms: _38  and  _39
REMARK   19  A    between atoms: _39  and  _40
REMARK   20  A    between atoms: _40  and  _41
REMARK   21  A    between atoms: _50  and  _52
REMARK   22  A    between atoms: _52  and  _53
REMARK   23  A    between atoms: _56  and  _58
REMARK   24  A    between atoms: _58  and  _59
REMARK   25  A    between atoms: _58  and  _61
REMARK   26  A    between atoms: _61  and  _62
REMARK   27  A    between atoms: _65  and  _67
REMARK   28  A    between atoms: _67  and  _68
REMARK   29  A    between atoms: _67  and  _70
REMARK   30  A    between atoms: _70  and  _71
REMARK   31  A    between atoms: _81  and  _83
REMARK   32  A    between atoms: _83  and  _84
REMARK   33  A    between atoms: _83  and  _86
REMARK   34  A    between atoms: _86  and  _87
REMARK   35  A    between atoms: _87  and  _88
REMARK   36  A    between atoms: _93  and  _95
REMARK   37  A    between atoms: _95  and  _96
REMARK   38  A    between atoms: _95  and  _98
REMARK   39  A    between atoms: _98  and  _99
REMARK   40  A    between atoms: _105  and  _107
REMARK   41  A    between atoms: _107  and  _108
REMARK   42  A    between atoms: _107  and  _110
REMARK   43  A    between atoms: _110  and  _111
REMARK   44  A    between atoms: _111  and  _112
REMARK   45  A    between atoms: _112  and  _113
REMARK   46  A    between atoms: _122  and  _124
REMARK   47  A    between atoms: _124  and  _125
REMARK   48  A    between atoms: _124  and  _127
REMARK   49  A    between atoms: _127  and  _128
REMARK   50  A    between atoms: _130  and  _132
REMARK   51  A    between atoms: _132  and  _133
REMARK   52  A    between atoms: _132  and  _135
REMARK   53  A    between atoms: _135  and  _136
REMARK   54  A    between atoms: _136  and  _137
REMARK   55  A    between atoms: _139  and  _141
REMARK   56  A    between atoms: _141  and  _142
REMARK   57  A    between atoms: _141  and  _144
REMARK   58  A    between atoms: _144  and  _145
REMARK   59  A    between atoms: _148  and  _150
REMARK   60  A    between atoms: _150  and  _151
REMARK   61  A    between atoms: _150  and  _153
REMARK   62  A    between atoms: _153  and  _154
REMARK   63  A    between atoms: _154  and  _155
REMARK   64  A    between atoms: _155  and  _156
REMARK   65  A    between atoms: _156  and  _157
REMARK   66  A    between atoms: _161  and  _163
REMARK   67  A    between atoms: _163  and  _164
REMARK   68  A    between atoms: _163  and  _166
REMARK   69  A    between atoms: _166  and  _167
REMARK   70  A    between atoms: _173  and  _174
REMARK   71  A    between atoms: _179  and  _181
REMARK   72  A    between atoms: _181  and  _182
REMARK   73  A    between atoms: _181  and  _184
REMARK   74  A    between atoms: _184  and  _185
REMARK   75  A    between atoms: _188  and  _190
REMARK   76  A    between atoms: _190  and  _191
REMARK   77  A    between atoms: _190  and  _193
REMARK   78  A    between atoms: _193  and  _194
REMARK   79  A    between atoms: _194  and  _195
REMARK   80  A    between atoms: _197  and  _199
REMARK   81  A    between atoms: _199  and  _200
REMARK   82  A    between atoms: _199  and  _202
REMARK   83  A    between atoms: _202  and  _203
REMARK   84  A    between atoms: _206  and  _208
REMARK   85  A    between atoms: _208  and  _209
REMARK   86  A    between atoms: _208  and  _211
REMARK   87  A    between atoms: _211  and  _212
REMARK   88  A    between atoms: _218  and  _220
REMARK   89  A    between atoms: _220  and  _221
REMARK   90  A    between atoms: _220  and  _223
REMARK   91  A    between atoms: _223  and  _224
REMARK   92  A    between atoms: _229  and  _231
REMARK   93  A    between atoms: _231  and  _232
REMARK   94  A    between atoms: _231  and  _234
REMARK   95  A    between atoms: _234  and  _235
REMARK   96  A    between atoms: _240  and  _242
REMARK   97  A    between atoms: _242  and  _243
REMARK   98  A    between atoms: _242  and  _245
REMARK   99  A    between atoms: _245  and  _246
REMARK  100  A    between atoms: _251  and  _252
REMARK  101  A    between atoms: _254  and  _256
REMARK  102  A    between atoms: _256  and  _257
REMARK  103  A    between atoms: _256  and  _259
REMARK  104  A    between atoms: _261  and  _263
REMARK  105  A    between atoms: _263  and  _264
REMARK  106  A    between atoms: _263  and  _266
REMARK  107  A    between atoms: _266  and  _267
REMARK  108  A    between atoms: _272  and  _273
REMARK  109  A    between atoms: _277  and  _280
REMARK  110  A    between atoms: _280  and  _281
REMARK  111  A    between atoms: _281  and  _354
REMARK  112  A    between atoms: _285  and  _287
REMARK  113  A    between atoms: _287  and  _289
REMARK  114  A    between atoms: _289  and  _290
REMARK  115  A    between atoms: _289  and  _292
REMARK  116  A    between atoms: _292  and  _293
REMARK  117  A    between atoms: _296  and  _298
REMARK  118  A    between atoms: _298  and  _299
REMARK  119  A    between atoms: _301  and  _303
REMARK  120  A    between atoms: _303  and  _304
REMARK  121  A    between atoms: _306  and  _308
REMARK  122  A    between atoms: _308  and  _309
REMARK  123  A    between atoms: _308  and  _311
REMARK  124  A    between atoms: _311  and  _312
REMARK  125  A    between atoms: _315  and  _317
REMARK  126  A    between atoms: _317  and  _318
REMARK  127  A    between atoms: _317  and  _320
REMARK  128  A    between atoms: _320  and  _321
REMARK  129  A    between atoms: _324  and  _326
REMARK  130  A    between atoms: _326  and  _327
REMARK  131  A    between atoms: _326  and  _329
REMARK  132  A    between atoms: _329  and  _330
REMARK  133  A    between atoms: _330  and  _331
REMARK  134  A    between atoms: _331  and  _332
REMARK  135  A    between atoms: _341  and  _343
REMARK  136  A    between atoms: _343  and  _344
REMARK  137  A    between atoms: _343  and  _346
REMARK  138  A    between atoms: _348  and  _350
REMARK  139  A    between atoms: _350  and  _351
REMARK  140  A    between atoms: _350  and  _353
REMARK  141  A    between atoms: _353  and  _354
REMARK  142  A    between atoms: _355  and  _357
REMARK  143  A    between atoms: _357  and  _358
REMARK  144  A    between atoms: _357  and  _360
REMARK  145  A    between atoms: _360  and  _361
REMARK  146  A    between atoms: _361  and  _362
REMARK  147  A    between atoms: _365  and  _367
REMARK  148  A    between atoms: _367  and  _368
REMARK  149  A    between atoms: _367  and  _370
REMARK  150  A    between atoms: _370  and  _371
REMARK  151  A    between atoms: _374  and  _376
REMARK  152  A    between atoms: _376  and  _377
REMARK  153  A    between atoms: _376  and  _379
REMARK  154  A    between atoms: _379  and  _380
REMARK  155  A    between atoms: _385  and  _387
REMARK  156  A    between atoms: _387  and  _388
REMARK  157  A    between atoms: _387  and  _390
REMARK  158  A    between atoms: _390  and  _391
REMARK  159  A    between atoms: _394  and  _396
REMARK  160  A    between atoms: _396  and  _397
REMARK  161  A    between atoms: _396  and  _399
REMARK  162  A    between atoms: _399  and  _400
REMARK  163  A    between atoms: _405  and  _407
REMARK  164  A    between atoms: _407  and  _408
REMARK  165  A    between atoms: _407  and  _410
REMARK  166  A    between atoms: _410  and  _411
REMARK  167  A    between atoms: _411  and  _480
REMARK  168  A    between atoms: _412  and  _414
REMARK  169  A    between atoms: _414  and  _415
REMARK  170  A    between atoms: _414  and  _417
REMARK  171  A    between atoms: _417  and  _418
REMARK  172  A    between atoms: _423  and  _424
REMARK  173  A    between atoms: _426  and  _428
REMARK  174  A    between atoms: _428  and  _429
REMARK  175  A    between atoms: _428  and  _431
REMARK  176  A    between atoms: _431  and  _432
REMARK  177  A    between atoms: _432  and  _433
REMARK  178  A    between atoms: _433  and  _434
REMARK  179  A    between atoms: _443  and  _445
REMARK  180  A    between atoms: _445  and  _446
REMARK  181  A    between atoms: _445  and  _448
REMARK  182  A    between atoms: _448  and  _449
REMARK  183  A    between atoms: _452  and  _454
REMARK  184  A    between atoms: _454  and  _455
REMARK  185  A    between atoms: _454  and  _457
REMARK  186  A    between atoms: _457  and  _458
REMARK  187  A    between atoms: _458  and  _459
REMARK  188  A    between atoms: _459  and  _460
REMARK  189  A    between atoms: _460  and  _461
REMARK  190  A    between atoms: _465  and  _467
REMARK  191  A    between atoms: _467  and  _468
REMARK  192  A    between atoms: _467  and  _470
REMARK  193  A    between atoms: _470  and  _471
REMARK  194  A    between atoms: _474  and  _476
REMARK  195  A    between atoms: _476  and  _477
REMARK  196  A    between atoms: _476  and  _479
REMARK  197  A    between atoms: _479  and  _480
REMARK  198  A    between atoms: _481  and  _483
REMARK  199  A    between atoms: _483  and  _484
REMARK  200  A    between atoms: _483  and  _486
REMARK  201  A    between atoms: _486  and  _487
REMARK  202  A    between atoms: _490  and  _492
REMARK  203  A    between atoms: _492  and  _493
REMARK  204  A    between atoms: _496  and  _498
REMARK  205  A    between atoms: _498  and  _499
REMARK  206  A    between atoms: _502  and  _504
REMARK  207  A    between atoms: _504  and  _505
REMARK  208  A    between atoms: _504  and  _507
REMARK  209  A    between atoms: _507  and  _508
REMARK  210  A    between atoms: _514  and  _516
REMARK  211  A    between atoms: _516  and  _517
REMARK  212  A    between atoms: _516  and  _519
REMARK  213  A    between atoms: _519  and  _520
REMARK  214  A    between atoms: _522  and  _524
REMARK  215  A    between atoms: _524  and  _525
REMARK  216  A    between atoms: _524  and  _527
REMARK  217  A    between atoms: _527  and  _528
REMARK  218  A    between atoms: _530  and  _532
REMARK  219  A    between atoms: _532  and  _533
REMARK  220  A    between atoms: _532  and  _535
REMARK  221  A    between atoms: _535  and  _536
REMARK  222  A    between atoms: _536  and  _537
REMARK  223  A    between atoms: _537  and  _538
REMARK  224  A    between atoms: _547  and  _549
REMARK  225  A    between atoms: _549  and  _550
REMARK  226  A    between atoms: _553  and  _555
REMARK  227  A    between atoms: _555  and  _556
REMARK  228  A    between atoms: _555  and  _558
REMARK  229  A    between atoms: _558  and  _559
REMARK  230  A    between atoms: _562  and  _564
REMARK  231  A    between atoms: _564  and  _565
REMARK  232  A    between atoms: _564  and  _567
REMARK  233  A    between atoms: _567  and  _568
REMARK  234  A    between atoms: _578  and  _580
REMARK  235  A    between atoms: _580  and  _581
REMARK  236  A    between atoms: _580  and  _583
REMARK  237  A    between atoms: _583  and  _584
REMARK  238  A    between atoms: _584  and  _585
REMARK  239  A    between atoms: _590  and  _592
REMARK  240  A    between atoms: _592  and  _593
REMARK  241  A    between atoms: _592  and  _595
REMARK  242  A    between atoms: _595  and  _596
REMARK  243  A    between atoms: _602  and  _604
REMARK  244  A    between atoms: _604  and  _605
REMARK  245  A    between atoms: _604  and  _607
REMARK  246  A    between atoms: _607  and  _608
REMARK  247  A    between atoms: _608  and  _609
REMARK  248  A    between atoms: _609  and  _610
REMARK  249  A    between atoms: _619  and  _621
REMARK  250  A    between atoms: _621  and  _622
REMARK  251  A    between atoms: _621  and  _624
REMARK  252  A    between atoms: _624  and  _625
REMARK  253  A    between atoms: _627  and  _629
REMARK  254  A    between atoms: _629  and  _630
REMARK  255  A    between atoms: _629  and  _632
REMARK  256  A    between atoms: _632  and  _633
REMARK  257  A    between atoms: _633  and  _634
REMARK  258  A    between atoms: _636  and  _638
REMARK  259  A    between atoms: _638  and  _639
REMARK  260  A    between atoms: _638  and  _641
REMARK  261  A    between atoms: _641  and  _642
REMARK  262  A    between atoms: _645  and  _647
REMARK  263  A    between atoms: _647  and  _648
REMARK  264  A    between atoms: _647  and  _650
REMARK  265  A    between atoms: _650  and  _651
REMARK  266  A    between atoms: _651  and  _652
REMARK  267  A    between atoms: _652  and  _653
REMARK  268  A    between atoms: _653  and  _654
REMARK  269  A    between atoms: _658  and  _660
REMARK  270  A    between atoms: _660  and  _661
REMARK  271  A    between atoms: _660  and  _663
REMARK  272  A    between atoms: _663  and  _664
REMARK  273  A    between atoms: _670  and  _671
REMARK  274  A    between atoms: _676  and  _678
REMARK  275  A    between atoms: _678  and  _679
REMARK  276  A    between atoms: _678  and  _681
REMARK  277  A    between atoms: _681  and  _682
REMARK  278  A    between atoms: _685  and  _687
REMARK  279  A    between atoms: _687  and  _688
REMARK  280  A    between atoms: _687  and  _690
REMARK  281  A    between atoms: _690  and  _691
REMARK  282  A    between atoms: _691  and  _692
REMARK  283  A    between atoms: _694  and  _696
REMARK  284  A    between atoms: _696  and  _697
REMARK  285  A    between atoms: _696  and  _699
REMARK  286  A    between atoms: _699  and  _700
REMARK  287  A    between atoms: _703  and  _705
REMARK  288  A    between atoms: _705  and  _706
REMARK  289  A    between atoms: _705  and  _708
REMARK  290  A    between atoms: _708  and  _709
REMARK  291  A    between atoms: _715  and  _717
REMARK  292  A    between atoms: _717  and  _718
REMARK  293  A    between atoms: _717  and  _720
REMARK  294  A    between atoms: _720  and  _721
REMARK  295  A    between atoms: _726  and  _728
REMARK  296  A    between atoms: _728  and  _729
REMARK  297  A    between atoms: _728  and  _731
REMARK  298  A    between atoms: _731  and  _732
REMARK  299  A    between atoms: _737  and  _739
REMARK  300  A    between atoms: _739  and  _740
REMARK  301  A    between atoms: _739  and  _742
REMARK  302  A    between atoms: _742  and  _743
REMARK  303  A    between atoms: _743  and  _755
REMARK  304  A    between atoms: _744  and  _746
REMARK  305  A    between atoms: _746  and  _747
REMARK  306  A    between atoms: _749  and  _751
REMARK  307  A    between atoms: _751  and  _752
REMARK  308  A    between atoms: _751  and  _754
REMARK  309  A    between atoms: _754  and  _755
REMARK  310  A    between atoms: _756  and  _758
REMARK  311  A    between atoms: _758  and  _759
REMARK  312  A    between atoms: _758  and  _761
REMARK  313  A    between atoms: _761  and  _762
REMARK  314  A    between atoms: _767  and  _769
REMARK  315  A    between atoms: _769  and  _770
REMARK  316  A    between atoms: _769  and  _772
REMARK  317  A    between atoms: _772  and  _773
REMARK  318  A    between atoms: _778  and  _779
REMARK  319  A    between atoms: _781  and  _783
REMARK  320  A    between atoms: _783  and  _784
REMARK  321  A    between atoms: _783  and  _786
REMARK  322  A    between atoms: _786  and  _787
REMARK                            x       y       z     vdW  Elec       q    Type
REMARK                         _______ _______ _______ _____ _____    ______ ____
ROOT
ATOM      1  CA  GLN A   7      17.710  16.842  29.684  0.00  0.00    +0.149 C 
ENDROOT
BRANCH   1   2
ATOM      2  C   GLN A   7      18.594  15.634  29.973  0.00  0.00    +0.241 C 
ATOM      3  O   GLN A   7      19.464  15.677  30.842  0.00  0.00    -0.273 OA
ATOM      4  N   PHE A   8      18.352  14.545  29.250  0.00  0.00    -0.297 N 
ATOM      5  H   PHE A   8      17.590  14.566  28.543  0.00  0.00    +0.150 HD
BRANCH   4   6
ATOM      6  CA  PHE A   8      19.128  13.322  29.423  0.00  0.00    +0.153 C 
BRANCH   6   7
ATOM      7  C   PHE A   8      20.586  13.651  29.112  0.00  0.00    +0.241 C 
ATOM      8  O   PHE A   8      21.496  13.223  29.819  0.00  0.00    -0.273 OA
ATOM      9  N   ARG A   9      20.798  14.440  28.064  0.00  0.00    -0.297 N 
ATOM     10  H   ARG A   9      19.985  14.774  27.507  0.00  0.00    +0.150 HD
BRANCH   9  11
ATOM     11  CA  ARG A   9      22.141  14.849  27.676  0.00  0.00    +0.149 C 
BRANCH  11  12
ATOM     12  C   ARG A   9      22.807  15.589  28.835  0.00  0.00    +0.241 C 
ATOM     13  N   SER A  10      22.074  16.516  29.443  0.00  0.00    -0.295 N 
ATOM     14  H   SER A  10      21.100  16.691  29.124  0.00  0.00    +0.150 HD
ATOM     15  O   ARG A   9      23.960  15.319  29.179  0.00  0.00    -0.273 OA
BRANCH  13  16
ATOM     16  CA  SER A  10      22.619  17.290  30.552  0.00  0.00    +0.178 C 
BRANCH  16  17
ATOM     17  C   SER A  10      22.982  16.388  31.724  0.00  0.00    +0.243 C 
ATOM     18  O   SER A  10      23.989  16.605  32.396  0.00  0.00    -0.273 OA
ATOM     19  N   MET A  11      22.169  15.366  31.963  0.00  0.00    -0.297 N 
ATOM     20  H   MET A  11      21.338  15.215  31.356  0.00  0.00    +0.150 HD
BRANCH  19  21
ATOM     21  CA  MET A  11      22.431  14.455  33.069  0.00  0.00    +0.149 C 
BRANCH  21  22
ATOM     22  C   MET A  11      23.670  13.603  32.809  0.00  0.00    +0.241 C 
ATOM     23  O   MET A  11      24.419  13.288  33.735  0.00  0.00    -0.273 OA
ATOM     24  N   ILE A  12      23.887  13.225  31.551  0.00  0.00    -0.297 N 
ATOM     25  H   ILE A  12      23.213  13.503  30.809  0.00  0.00    +0.150 HD
BRANCH  24  26
ATOM     26  CA  ILE A  12      25.055  12.427  31.197  0.00  0.00    +0.149 C 
BRANCH  26  27
ATOM     27  C   ILE A  12      26.308  13.275  31.387  0.00  0.00    +0.241 C 
ATOM     28  O   ILE A  12      27.338  12.787  31.852  0.00  0.00    -0.273 OA
ATOM     29  N   LYS A  13      26.215  14.550  31.028  0.00  0.00    -0.298 N 
ATOM     30  H   LYS A  13      25.321  14.908  30.635  0.00  0.00    +0.150 HD
BRANCH  29  31
ATOM     31  CA  LYS A  13      27.347  15.456  31.177  0.00  0.00    +0.137 C 
BRANCH  31  32
ATOM     32  C   LYS A  13      27.681  15.614  32.656  0.00  0.00    +0.227 C 
ATOM     33  O   LYS A  13      28.838  15.836  33.024  0.00  0.00    -0.286 OA
ENDBRANCH  31  32
BRANCH  31  34
ATOM     34  CB  LYS A  13      27.016  16.811  30.551  0.00  0.00    +0.028 C 
BRANCH  34  35
ATOM     35  CG  LYS A  13      26.799  16.735  29.048  0.00  0.00    -0.000 C 
BRANCH  35  36
ATOM     36  CD  LYS A  13      26.263  18.042  28.492  0.00  0.00    -0.024 C 
BRANCH  36  37
ATOM     37  CE  LYS A  13      27.305  19.145  28.543  0.00  0.00    -0.086 C 
BRANCH  37  38
ATOM     38  NZ  LYS A  13      28.455  18.850  27.646  0.00  0.00    +0.380 N 
ATOM     39  HZ1 LYS A  13      28.903  17.959  27.941  0.00  0.00    -0.089 HD
ATOM     40  HZ2 LYS A  13      29.147  19.624  27.706  0.00  0.00    -0.089 HD
ATOM     41  HZ3 LYS A  13      28.116  18.762  26.667  0.00  0.00    -0.089 HD
ENDBRANCH  37  38
ENDBRANCH  36  37
ENDBRANCH  35  36
ENDBRANCH  34  35
ENDBRANCH  31  34
ENDBRANCH  29  31
ENDBRANCH  26  27
BRANCH  26  42
ATOM     42  CB  ILE A  12      24.994  11.949  29.729  0.00  0.00    +0.027 C 
ATOM     43  CG2 ILE A  12      26.280  11.213  29.368  0.00  0.00    +0.002 C 
BRANCH  42  44
ATOM     44  CG1 ILE A  12      23.787  11.030  29.533  0.00  0.00    +0.002 C 
ATOM     45  CD1 ILE A  12      23.497  10.712  28.081  0.00  0.00    +0.000 C 
ENDBRANCH  42  44
ENDBRANCH  26  42
ENDBRANCH  24  26
ENDBRANCH  21  22
BRANCH  21  46
ATOM     46  CB  MET A  11      21.215  13.561  33.308  0.00  0.00    +0.041 C 
BRANCH  46  47
ATOM     47  CG  MET A  11      21.189  12.933  34.679  0.00  0.00    +0.060 C 
BRANCH  47  48
ATOM     48  SD  MET A  11      19.714  11.955  34.945  0.00  0.00    -0.139 S 
ATOM     49  CE  MET A  11      18.593  13.180  35.571  0.00  0.00    +0.069 C 
ENDBRANCH  47  48
ENDBRANCH  46  47
ENDBRANCH  21  46
ENDBRANCH  19  21
ENDBRANCH  16  17
BRANCH  16  50
ATOM     50  CB  SER A  10      21.619  18.362  31.004  0.00  0.00    +0.166 C 
BRANCH  50  51
ATOM     51  OG  SER A  10      20.517  17.801  31.698  0.00  0.00    -0.380 OA
ATOM     52  H   SER A  10      20.043  17.166  31.104  0.00  0.00    +0.211 HD
ENDBRANCH  50  51
ENDBRANCH  16  50
ENDBRANCH  13  16
ENDBRANCH  11  12
BRANCH  11  53
ATOM     53  CB  ARG A   9      22.072  15.761  26.448  0.00  0.00    +0.033 C 
BRANCH  53  54
ATOM     54  CG  ARG A   9      23.397  16.420  26.065  0.00  0.00    +0.045 C 
BRANCH  54  55
ATOM     55  CD  ARG A   9      23.234  17.271  24.809  0.00  0.00    +0.174 C 
BRANCH  55  56
ATOM     56  NE  ARG A   9      24.487  17.876  24.360  0.00  0.00    -0.265 N 
ATOM     57  CZ  ARG A   9      24.955  19.052  24.771  0.00  0.00    +0.342 C 
ATOM     58  NH2 ARG A   9      24.282  19.777  25.655  0.00  0.00    -0.292 N 
ATOM     59 HH21 ARG A   9      23.379  19.428  26.034  0.00  0.00    +0.255 HD
ATOM     60 HH22 ARG A   9      24.658  20.695  25.969  0.00  0.00    +0.255 HD
ATOM     61  NH1 ARG A   9      26.099  19.509  24.279  0.00  0.00    -0.292 N 
ATOM     62 HH11 ARG A   9      26.471  20.427  24.595  0.00  0.00    +0.255 HD
ATOM     63 HH12 ARG A   9      26.624  18.949  23.577  0.00  0.00    +0.255 HD
ATOM     64  HE  ARG A   9      25.055  17.348  23.667  0.00  0.00    +0.259 HD
ENDBRANCH  55  56
ENDBRANCH  54  55
ENDBRANCH  53  54
ENDBRANCH  11  53
ENDBRANCH   9  11
ENDBRANCH   6   7
BRANCH   6  65
ATOM     65  CB  PHE A   8      18.576  12.232  28.490  0.00  0.00    +0.055 C 
BRANCH  65  66
ATOM     66  CG  PHE A   8      19.316  10.917  28.555  0.00  0.00    -0.020 A 
ATOM     67  CD2 PHE A   8      19.779  10.411  29.766  0.00  0.00    -0.004 A 
ATOM     68  CE2 PHE A   8      20.412   9.167  29.825  0.00  0.00    -0.000 A 
ATOM     69  CZ  PHE A   8      20.586   8.417  28.664  0.00  0.00    -0.000 A 
ATOM     70  CE1 PHE A   8      20.128   8.916  27.444  0.00  0.00    -0.000 A 
ATOM     71  CD1 PHE A   8      19.498  10.160  27.400  0.00  0.00    -0.004 A 
ENDBRANCH  65  66
ENDBRANCH   6  65
ENDBRANCH   4   6
ENDBRANCH   1   2
BRANCH   1  73
ATOM     72  C   TRP A   6      18.613  17.346  27.484  0.00  0.00    +0.241 C 
ATOM     73  N   GLN A   7      17.566  17.016  28.237  0.00  0.00    -0.297 N 
ATOM     74  H   GLN A   7      16.635  16.880  27.793  0.00  0.00    +0.150 HD
ATOM     75  O   TRP A   6      19.735  17.538  27.953  0.00  0.00    -0.273 OA
BRANCH  72  76
ATOM     76  CA  TRP A   6      18.369  17.479  25.982  0.00  0.00    +0.153 C 
BRANCH  76  79
ATOM     77  C   LEU A   5      17.794  15.174  25.546  0.00  0.00    +0.241 C 
ATOM     78  O   LEU A   5      18.889  14.791  25.952  0.00  0.00    -0.273 OA
ATOM     79  N   TRP A   6      17.445  16.456  25.524  0.00  0.00    -0.297 N 
ATOM     80  H   TRP A   6      16.504  16.729  25.176  0.00  0.00    +0.150 HD
BRANCH  77  81
ATOM     81  CA  LEU A   5      16.756  14.178  25.045  0.00  0.00    +0.149 C 
BRANCH  81  84
ATOM     82  C   ALA A   4      15.085  14.684  26.731  0.00  0.00    +0.241 C 
ATOM     83  O   ALA A   4      15.862  14.382  27.639  0.00  0.00    -0.273 OA
ATOM     84  N   LEU A   5      15.424  14.613  25.449  0.00  0.00    -0.297 N 
ATOM     85  H   LEU A   5      14.728  14.872  24.721  0.00  0.00    +0.150 HD
BRANCH  82  86
ATOM     86  CA  ALA A   4      13.669  15.173  27.033  0.00  0.00    +0.149 C 
ATOM     87  CB  ALA A   4      12.661  14.051  26.825  0.00  0.00    +0.031 C 
BRANCH  86  90
ATOM     88  C   ARG A   3      14.023  17.439  26.283  0.00  0.00    +0.241 C 
ATOM     89  O   ARG A   3      14.849  17.625  27.176  0.00  0.00    -0.273 OA
ATOM     90  N   ALA A   4      13.378  16.289  26.137  0.00  0.00    -0.297 N 
ATOM     91  H   ALA A   4      12.667  16.182  25.386  0.00  0.00    +0.150 HD
BRANCH  88  92
ATOM     92  CA  ARG A   3      13.696  18.547  25.294  0.00  0.00    +0.149 C 
BRANCH  92  94
ATOM     93  C   SER A   2      14.272  17.390  23.251  0.00  0.00    +0.243 C 
ATOM     94  N   ARG A   3      13.352  18.016  23.979  0.00  0.00    -0.297 N 
ATOM     95  H   ARG A   3      12.386  18.127  23.611  0.00  0.00    +0.150 HD
ATOM     96  O   SER A   2      15.430  17.242  23.635  0.00  0.00    -0.273 OA
BRANCH  93  97
ATOM     97  CA  SER A   2      13.833  16.853  21.893  0.00  0.00    +0.178 C 
BRANCH  97 100
ATOM     98  C   SER A   1      12.394  15.136  22.810  0.00  0.00    +0.241 C 
ATOM     99  O   SER A   1      13.322  14.638  23.445  0.00  0.00    -0.274 OA
ATOM    100  N   SER A   2      12.545  16.193  22.020  0.00  0.00    -0.295 N 
ATOM    101  H   SER A   2      11.729  16.553  21.485  0.00  0.00    +0.150 HD
BRANCH  98 102
ATOM    102  CA  SER A   1      10.999  14.547  22.889  0.00  0.00    +0.174 C 
BRANCH 102 103
ATOM    103  N   SER A   1      11.038  13.207  23.460  0.00  0.00    -0.236 NA
ATOM    104  H   SER A   1      11.890  12.883  23.961  0.00  0.00    +0.142 HD
ENDBRANCH 102 103
BRANCH 102 105
ATOM    105  CB  SER A   1      10.118  15.461  23.744  0.00  0.00    +0.163 C 
BRANCH 105 106
ATOM    106  OG  SER A   1      10.761  15.800  24.964  0.00  0.00    -0.380 OA
ATOM    107  H   SER A   1      10.169  16.390  25.495  0.00  0.00    +0.211 HD
ENDBRANCH 105 106
ENDBRANCH 102 105
ENDBRANCH  98 102
ENDBRANCH  97 100
BRANCH  97 108
ATOM    108  CB  SER A   2      13.744  17.994  20.877  0.00  0.00    +0.166 C 
BRANCH 108 109
ATOM    109  OG  SER A   2      13.441  17.489  19.587  0.00  0.00    -0.380 OA
ATOM    110  H   SER A   2      13.387  18.240  18.944  0.00  0.00    +0.211 HD
ENDBRANCH 108 109
ENDBRANCH  97 108
ENDBRANCH  93  97
ENDBRANCH  92  94
BRANCH  92 111
ATOM    111  CB  ARG A   3      12.571  19.434  25.839  0.00  0.00    +0.033 C 
BRANCH 111 112
ATOM    112  CG  ARG A   3      12.483  20.761  25.107  0.00  0.00    +0.045 C 
BRANCH 112 113
ATOM    113  CD  ARG A   3      11.426  21.701  25.675  0.00  0.00    +0.174 C 
BRANCH 113 114
ATOM    114  NE  ARG A   3      11.175  22.787  24.730  0.00  0.00    -0.265 N 
ATOM    115  CZ  ARG A   3      12.012  23.791  24.490  0.00  0.00    +0.342 C 
ATOM    116  NH2 ARG A   3      13.166  23.876  25.139  0.00  0.00    -0.292 N 
ATOM    117 HH21 ARG A   3      13.422  23.153  25.842  0.00  0.00    +0.255 HD
ATOM    118 HH22 ARG A   3      13.815  24.665  24.945  0.00  0.00    +0.255 HD
ATOM    119  NH1 ARG A   3      11.711  24.692  23.564  0.00  0.00    -0.292 N 
ATOM    120 HH11 ARG A   3      12.363  25.479  23.373  0.00  0.00    +0.255 HD
ATOM    121 HH12 ARG A   3      10.823  24.611  23.029  0.00  0.00    +0.255 HD
ATOM    122  HE  ARG A   3      10.276  22.773  24.207  0.00  0.00    +0.259 HD
ENDBRANCH 113 114
ENDBRANCH 112 113
ENDBRANCH 111 112
ENDBRANCH  92 111
ENDBRANCH  88  92
ENDBRANCH  86  90
ENDBRANCH  82  86
ENDBRANCH  81  84
BRANCH  81 123
ATOM    123  CB  LEU A   5      16.844  14.064  23.517  0.00  0.00    +0.029 C 
BRANCH 123 124
ATOM    124  CG  LEU A   5      16.169  12.839  22.894  0.00  0.00    +0.002 C 
ATOM    125  CD2 LEU A   5      16.944  11.584  23.267  0.00  0.00    +0.000 C 
ATOM    126  CD1 LEU A   5      16.121  12.990  21.386  0.00  0.00    +0.000 C 
ENDBRANCH 123 124
ENDBRANCH  81 123
ENDBRANCH  77  81
ENDBRANCH  76  79
BRANCH  76 127
ATOM    127  CB  TRP A   6      17.830  18.872  25.652  0.00  0.00    +0.057 C 
BRANCH 127 128
ATOM    128  CG  TRP A   6      18.845  19.946  25.880  0.00  0.00    -0.002 A 
ATOM    129  CD1 TRP A   6      19.066  20.636  27.038  0.00  0.00    +0.068 A 
ATOM    130  NE1 TRP A   6      20.122  21.502  26.878  0.00  0.00    -0.352 N 
ATOM    131  HE1 TRP A   6      20.494  22.143  27.608  0.00  0.00    +0.166 HD
ATOM    132  CE2 TRP A   6      20.605  21.383  25.601  0.00  0.00    +0.056 A 
ATOM    133  CZ2 TRP A   6      21.665  22.048  24.969  0.00  0.00    +0.017 A 
ATOM    134  CH2 TRP A   6      21.929  21.724  23.661  0.00  0.00    +0.001 A 
ATOM    135  CZ3 TRP A   6      21.170  20.761  22.977  0.00  0.00    +0.000 A 
ATOM    136  CE3 TRP A   6      20.113  20.098  23.607  0.00  0.00    +0.001 A 
ATOM    137  CD2 TRP A   6      19.821  20.411  24.941  0.00  0.00    +0.013 A 
ENDBRANCH 127 128
ENDBRANCH  76 127
ENDBRANCH  72  76
ENDBRANCH   1  73
BRANCH   1 138
ATOM    138  CB  GLN A   7      16.355  16.614  30.357  0.00  0.00    +0.039 C 
BRANCH 138 139
ATOM    139  CG  GLN A   7      15.522  17.848  30.617  0.00  0.00    +0.087 C 
BRANCH 139 140
ATOM    140  CD  GLN A   7      14.792  17.761  31.949  0.00  0.00    +0.219 C 
ATOM    141  OE1 GLN A   7      15.320  18.165  32.994  0.00  0.00    -0.275 OA
ATOM    142  NE2 GLN A   7      13.586  17.213  31.925  0.00  0.00    -0.329 N 
ATOM    143 HE21 GLN A   7      13.045  17.109  32.807  0.00  0.00    +0.145 HD
ATOM    144 HE22 GLN A   7      13.181  16.887  31.024  0.00  0.00    +0.145 HD
ENDBRANCH 139 140
ENDBRANCH 138 139
ENDBRANCH   1 138
TORSDOF 59
REMARK  Name = ../refined-set-2016/1hn4/1hn4_pocket.pdb
REMARK  322 active torsions:
REMARK  status: ('A' for Active; 'I' for Inactive)
REMARK    1  A    between atoms: _1  and  _5
REMARK    2  A    between atoms: _5  and  _6
REMARK    3  A    between atoms: _8  and  _10
REMARK    4  A    between atoms: _10  and  _11
REMARK    5  A    between atoms: _10  and  _13
REMARK    6  A    between atoms: _13  and  _14
REMARK    7  A    between atoms: _17  and  _19
REMARK    8  A    between atoms: _19  and  _20
REMARK    9  A    between atoms: _19  and  _22
REMARK   10  A    between atoms: _22  and  _23
REMARK   11  A    between atoms: _25  and  _27
REMARK   12  A    between atoms: _27  and  _28
REMARK   13  A    between atoms: _27  and  _30
REMARK   14  A    between atoms: _30  and  _31
REMARK   15  A    between atoms: _33  and  _35
REMARK   16  A    between atoms: _35  and  _36
REMARK   17  A    between atoms: _35  and  _38
REMARK   18  A    between atoms: _38  and  _39
REMARK   19  A    between atoms: _39  and  _40
REMARK   20  A    between atoms: _40  and  _41
REMARK   21  A    between atoms: _50  and  _52
REMARK   22  A    between atoms: _52  and  _53
REMARK   23  A    between atoms: _56  and  _58
REMARK   24  A    between atoms: _58  and  _59
REMARK   25  A    between atoms: _58  and  _61
REMARK   26  A    between atoms: _61  and  _62
REMARK   27  A    between atoms: _65  and  _67
REMARK   28  A    between atoms: _67  and  _68
REMARK   29  A    between atoms: _67  and  _70
REMARK   30  A    between atoms: _70  and  _71
REMARK   31  A    between atoms: _81  and  _83
REMARK   32  A    between atoms: _83  and  _84
REMARK   33  A    between atoms: _83  and  _86
REMARK   34  A    between atoms: _86  and  _87
REMARK   35  A    between atoms: _87  and  _88
REMARK   36  A    between atoms: _93  and  _95
REMARK   37  A    between atoms: _95  and  _96
REMARK   38  A    between atoms: _95  and  _98
REMARK   39  A    between atoms: _98  and  _99
REMARK   40  A    between atoms: _105  and  _107
REMARK   41  A    between atoms: _107  and  _108
REMARK   42  A    between atoms: _107  and  _110
REMARK   43  A    between atoms: _110  and  _111
REMARK   44  A    between atoms: _111  and  _112
REMARK   45  A    between atoms: _112  and  _113
REMARK   46  A    between atoms: _122  and  _124
REMARK   47  A    between atoms: _124  and  _125
REMARK   48  A    between atoms: _124  and  _127
REMARK   49  A    between atoms: _127  and  _128
REMARK   50  A    between atoms: _130  and  _132
REMARK   51  A    between atoms: _132  and  _133
REMARK   52  A    between atoms: _132  and  _135
REMARK   53  A    between atoms: _135  and  _136
REMARK   54  A    between atoms: _136  and  _137
REMARK   55  A    between atoms: _139  and  _141
REMARK   56  A    between atoms: _141  and  _142
REMARK   57  A    between atoms: _141  and  _144
REMARK   58  A    between atoms: _144  and  _145
REMARK   59  A    between atoms: _148  and  _150
REMARK   60  A    between atoms: _150  and  _151
REMARK   61  A    between atoms: _150  and  _153
REMARK   62  A    between atoms: _153  and  _154
REMARK   63  A    between atoms: _154  and  _155
REMARK   64  A    between atoms: _155  and  _156
REMARK   65  A    between atoms: _156  and  _157
REMARK   66  A    between atoms: _161  and  _163
REMARK   67  A    between atoms: _163  and  _164
REMARK   68  A    between atoms: _163  and  _166
REMARK   69  A    between atoms: _166  and  _167
REMARK   70  A    between atoms: _173  and  _174
REMARK   71  A    between atoms: _179  and  _181
REMARK   72  A    between atoms: _181  and  _182
REMARK   73  A    between atoms: _181  and  _184
REMARK   74  A    between atoms: _184  and  _185
REMARK   75  A    between atoms: _188  and  _190
REMARK   76  A    between atoms: _190  and  _191
REMARK   77  A    between atoms: _190  and  _193
REMARK   78  A    between atoms: _193  and  _194
REMARK   79  A    between atoms: _194  and  _195
REMARK   80  A    between atoms: _197  and  _199
REMARK   81  A    between atoms: _199  and  _200
REMARK   82  A    between atoms: _199  and  _202
REMARK   83  A    between atoms: _202  and  _203
REMARK   84  A    between atoms: _206  and  _208
REMARK   85  A    between atoms: _208  and  _209
REMARK   86  A    between atoms: _208  and  _211
REMARK   87  A    between atoms: _211  and  _212
REMARK   88  A    between atoms: _218  and  _220
REMARK   89  A    between atoms: _220  and  _221
REMARK   90  A    between atoms: _220  and  _223
REMARK   91  A    between atoms: _223  and  _224
REMARK   92  A    between atoms: _229  and  _231
REMARK   93  A    between atoms: _231  and  _232
REMARK   94  A    between atoms: _231  and  _234
REMARK   95  A    between atoms: _234  and  _235
REMARK   96  A    between atoms: _240  and  _242
REMARK   97  A    between atoms: _242  and  _243
REMARK   98  A    between atoms: _242  and  _245
REMARK   99  A    between atoms: _245  and  _246
REMARK  100  A    between atoms: _251  and  _252
REMARK  101  A    between atoms: _254  and  _256
REMARK  102  A    between atoms: _256  and  _257
REMARK  103  A    between atoms: _256  and  _259
REMARK  104  A    between atoms: _261  and  _263
REMARK  105  A    between atoms: _263  and  _264
REMARK  106  A    between atoms: _263  and  _266
REMARK  107  A    between atoms: _266  and  _267
REMARK  108  A    between atoms: _272  and  _273
REMARK  109  A    between atoms: _277  and  _280
REMARK  110  A    between atoms: _280  and  _281
REMARK  111  A    between atoms: _281  and  _354
REMARK  112  A    between atoms: _285  and  _287
REMARK  113  A    between atoms: _287  and  _289
REMARK  114  A    between atoms: _289  and  _290
REMARK  115  A    between atoms: _289  and  _292
REMARK  116  A    between atoms: _292  and  _293
REMARK  117  A    between atoms: _296  and  _298
REMARK  118  A    between atoms: _298  and  _299
REMARK  119  A    between atoms: _301  and  _303
REMARK  120  A    between atoms: _303  and  _304
REMARK  121  A    between atoms: _306  and  _308
REMARK  122  A    between atoms: _308  and  _309
REMARK  123  A    between atoms: _308  and  _311
REMARK  124  A    between atoms: _311  and  _312
REMARK  125  A    between atoms: _315  and  _317
REMARK  126  A    between atoms: _317  and  _318
REMARK  127  A    between atoms: _317  and  _320
REMARK  128  A    between atoms: _320  and  _321
REMARK  129  A    between atoms: _324  and  _326
REMARK  130  A    between atoms: _326  and  _327
REMARK  131  A    between atoms: _326  and  _329
REMARK  132  A    between atoms: _329  and  _330
REMARK  133  A    between atoms: _330  and  _331
REMARK  134  A    between atoms: _331  and  _332
REMARK  135  A    between atoms: _341  and  _343
REMARK  136  A    between atoms: _343  and  _344
REMARK  137  A    between atoms: _343  and  _346
REMARK  138  A    between atoms: _348  and  _350
REMARK  139  A    between atoms: _350  and  _351
REMARK  140  A    between atoms: _350  and  _353
REMARK  141  A    between atoms: _353  and  _354
REMARK  142  A    between atoms: _355  and  _357
REMARK  143  A    between atoms: _357  and  _358
REMARK  144  A    between atoms: _357  and  _360
REMARK  145  A    between atoms: _360  and  _361
REMARK  146  A    between atoms: _361  and  _362
REMARK  147  A    between atoms: _365  and  _367
REMARK  148  A    between atoms: _367  and  _368
REMARK  149  A    between atoms: _367  and  _370
REMARK  150  A    between atoms: _370  and  _371
REMARK  151  A    between atoms: _374  and  _376
REMARK  152  A    between atoms: _376  and  _377
REMARK  153  A    between atoms: _376  and  _379
REMARK  154  A    between atoms: _379  and  _380
REMARK  155  A    between atoms: _385  and  _387
REMARK  156  A    between atoms: _387  and  _388
REMARK  157  A    between atoms: _387  and  _390
REMARK  158  A    between atoms: _390  and  _391
REMARK  159  A    between atoms: _394  and  _396
REMARK  160  A    between atoms: _396  and  _397
REMARK  161  A    between atoms: _396  and  _399
REMARK  162  A    between atoms: _399  and  _400
REMARK  163  A    between atoms: _405  and  _407
REMARK  164  A    between atoms: _407  and  _408
REMARK  165  A    between atoms: _407  and  _410
REMARK  166  A    between atoms: _410  and  _411
REMARK  167  A    between atoms: _411  and  _480
REMARK  168  A    between atoms: _412  and  _414
REMARK  169  A    between atoms: _414  and  _415
REMARK  170  A    between atoms: _414  and  _417
REMARK  171  A    between atoms: _417  and  _418
REMARK  172  A    between atoms: _423  and  _424
REMARK  173  A    between atoms: _426  and  _428
REMARK  174  A    between atoms: _428  and  _429
REMARK  175  A    between atoms: _428  and  _431
REMARK  176  A    between atoms: _431  and  _432
REMARK  177  A    between atoms: _432  and  _433
REMARK  178  A    between atoms: _433  and  _434
REMARK  179  A    between atoms: _443  and  _445
REMARK  180  A    between atoms: _445  and  _446
REMARK  181  A    between atoms: _445  and  _448
REMARK  182  A    between atoms: _448  and  _449
REMARK  183  A    between atoms: _452  and  _454
REMARK  184  A    between atoms: _454  and  _455
REMARK  185  A    between atoms: _454  and  _457
REMARK  186  A    between atoms: _457  and  _458
REMARK  187  A    between atoms: _458  and  _459
REMARK  188  A    between atoms: _459  and  _460
REMARK  189  A    between atoms: _460  and  _461
REMARK  190  A    between atoms: _465  and  _467
REMARK  191  A    between atoms: _467  and  _468
REMARK  192  A    between atoms: _467  and  _470
REMARK  193  A    between atoms: _470  and  _471
REMARK  194  A    between atoms: _474  and  _476
REMARK  195  A    between atoms: _476  and  _477
REMARK  196  A    between atoms: _476  and  _479
REMARK  197  A    between atoms: _479  and  _480
REMARK  198  A    between atoms: _481  and  _483
REMARK  199  A    between atoms: _483  and  _484
REMARK  200  A    between atoms: _483  and  _486
REMARK  201  A    between atoms: _486  and  _487
REMARK  202  A    between atoms: _490  and  _492
REMARK  203  A    between atoms: _492  and  _493
REMARK  204  A    between atoms: _496  and  _498
REMARK  205  A    between atoms: _498  and  _499
REMARK  206  A    between atoms: _502  and  _504
REMARK  207  A    between atoms: _504  and  _505
REMARK  208  A    between atoms: _504  and  _507
REMARK  209  A    between atoms: _507  and  _508
REMARK  210  A    between atoms: _514  and  _516
REMARK  211  A    between atoms: _516  and  _517
REMARK  212  A    between atoms: _516  and  _519
REMARK  213  A    between atoms: _519  and  _520
REMARK  214  A    between atoms: _522  and  _524
REMARK  215  A    between atoms: _524  and  _525
REMARK  216  A    between atoms: _524  and  _527
REMARK  217  A    between atoms: _527  and  _528
REMARK  218  A    between atoms: _530  and  _532
REMARK  219  A    between atoms: _532  and  _533
REMARK  220  A    between atoms: _532  and  _535
REMARK  221  A    between atoms: _535  and  _536
REMARK  222  A    between atoms: _536  and  _537
REMARK  223  A    between atoms: _537  and  _538
REMARK  224  A    between atoms: _547  and  _549
REMARK  225  A    between atoms: _549  and  _550
REMARK  226  A    between atoms: _553  and  _555
REMARK  227  A    between atoms: _555  and  _556
REMARK  228  A    between atoms: _555  and  _558
REMARK  229  A    between atoms: _558  and  _559
REMARK  230  A    between atoms: _562  and  _564
REMARK  231  A    between atoms: _564  and  _565
REMARK  232  A    between atoms: _564  and  _567
REMARK  233  A    between atoms: _567  and  _568
REMARK  234  A    between atoms: _578  and  _580
REMARK  235  A    between atoms: _580  and  _581
REMARK  236  A    between atoms: _580  and  _583
REMARK  237  A    between atoms: _583  and  _584
REMARK  238  A    between atoms: _584  and  _585
REMARK  239  A    between atoms: _590  and  _592
REMARK  240  A    between atoms: _592  and  _593
REMARK  241  A    between atoms: _592  and  _595
REMARK  242  A    between atoms: _595  and  _596
REMARK  243  A    between atoms: _602  and  _604
REMARK  244  A    between atoms: _604  and  _605
REMARK  245  A    between atoms: _604  and  _607
REMARK  246  A    between atoms: _607  and  _608
REMARK  247  A    between atoms: _608  and  _609
REMARK  248  A    between atoms: _609  and  _610
REMARK  249  A    between atoms: _619  and  _621
REMARK  250  A    between atoms: _621  and  _622
REMARK  251  A    between atoms: _621  and  _624
REMARK  252  A    between atoms: _624  and  _625
REMARK  253  A    between atoms: _627  and  _629
REMARK  254  A    between atoms: _629  and  _630
REMARK  255  A    between atoms: _629  and  _632
REMARK  256  A    between atoms: _632  and  _633
REMARK  257  A    between atoms: _633  and  _634
REMARK  258  A    between atoms: _636  and  _638
REMARK  259  A    between atoms: _638  and  _639
REMARK  260  A    between atoms: _638  and  _641
REMARK  261  A    between atoms: _641  and  _642
REMARK  262  A    between atoms: _645  and  _647
REMARK  263  A    between atoms: _647  and  _648
REMARK  264  A    between atoms: _647  and  _650
REMARK  265  A    between atoms: _650  and  _651
REMARK  266  A    between atoms: _651  and  _652
REMARK  267  A    between atoms: _652  and  _653
REMARK  268  A    between atoms: _653  and  _654
REMARK  269  A    between atoms: _658  and  _660
REMARK  270  A    between atoms: _660  and  _661
REMARK  271  A    between atoms: _660  and  _663
REMARK  272  A    between atoms: _663  and  _664
REMARK  273  A    between atoms: _670  and  _671
REMARK  274  A    between atoms: _676  and  _678
REMARK  275  A    between atoms: _678  and  _679
REMARK  276  A    between atoms: _678  and  _681
REMARK  277  A    between atoms: _681  and  _682
REMARK  278  A    between atoms: _685  and  _687
REMARK  279  A    between atoms: _687  and  _688
REMARK  280  A    between atoms: _687  and  _690
REMARK  281  A    between atoms: _690  and  _691
REMARK  282  A    between atoms: _691  and  _692
REMARK  283  A    between atoms: _694  and  _696
REMARK  284  A    between atoms: _696  and  _697
REMARK  285  A    between atoms: _696  and  _699
REMARK  286  A    between atoms: _699  and  _700
REMARK  287  A    between atoms: _703  and  _705
REMARK  288  A    between atoms: _705  and  _706
REMARK  289  A    between atoms: _705  and  _708
REMARK  290  A    between atoms: _708  and  _709
REMARK  291  A    between atoms: _715  and  _717
REMARK  292  A    between atoms: _717  and  _718
REMARK  293  A    between atoms: _717  and  _720
REMARK  294  A    between atoms: _720  and  _721
REMARK  295  A    between atoms: _726  and  _728
REMARK  296  A    between atoms: _728  and  _729
REMARK  297  A    between atoms: _728  and  _731
REMARK  298  A    between atoms: _731  and  _732
REMARK  299  A    between atoms: _737  and  _739
REMARK  300  A    between atoms: _739  and  _740
REMARK  301  A    between atoms: _739  and  _742
REMARK  302  A    between atoms: _742  and  _743
REMARK  303  A    between atoms: _743  and  _755
REMARK  304  A    between atoms: _744  and  _746
REMARK  305  A    between atoms: _746  and  _747
REMARK  306  A    between atoms: _749  and  _751
REMARK  307  A    between atoms: _751  and  _752
REMARK  308  A    between atoms: _751  and  _754
REMARK  309  A    between atoms: _754  and  _755
REMARK  310  A    between atoms: _756  and  _758
REMARK  311  A    between atoms: _758  and  _759
REMARK  312  A    between atoms: _758  and  _761
REMARK  313  A    between atoms: _761  and  _762
REMARK  314  A    between atoms: _767  and  _769
REMARK  315  A    between atoms: _769  and  _770
REMARK  316  A    between atoms: _769  and  _772
REMARK  317  A    between atoms: _772  and  _773
REMARK  318  A    between atoms: _778  and  _779
REMARK  319  A    between atoms: _781  and  _783
REMARK  320  A    between atoms: _783  and  _784
REMARK  321  A    between atoms: _783  and  _786
REMARK  322  A    between atoms: _786  and  _787
REMARK                            x       y       z     vdW  Elec       q    Type
REMARK                         _______ _______ _______ _____ _____    ______ ____
ROOT
ATOM      1  CA  ASP A   5      29.527   9.284  22.405  0.00  0.00    +0.160 C 
ENDROOT
BRANCH   1   2
ATOM      2  C   ASP A   5      28.493   8.179  22.547  0.00  0.00    +0.241 C 
ATOM      3  N   PHE A   6      27.305   8.539  23.021  0.00  0.00    -0.297 N 
ATOM      4  H   PHE A   6      27.118   9.543  23.219  0.00  0.00    +0.150 HD
ATOM      5  O   ASP A   5      28.773   7.017  22.245  0.00  0.00    -0.273 OA
BRANCH   3   6
ATOM      6  CA  PHE A   6      26.260   7.555  23.269  0.00  0.00    +0.153 C 
BRANCH   6   7
ATOM      7  C   PHE A   6      25.158   7.412  22.229  0.00  0.00    +0.241 C 
ATOM      8  O   PHE A   6      24.117   6.810  22.496  0.00  0.00    -0.273 OA
ATOM      9  N   ASN A   7      25.397   7.956  21.044  0.00  0.00    -0.297 N 
ATOM     10  H   ASN A   7      26.291   8.467  20.894  0.00  0.00    +0.150 HD
BRANCH   9  11
ATOM     11  CA  ASN A   7      24.447   7.860  19.947  0.00  0.00    +0.158 C 
BRANCH  11  12
ATOM     12  C   ASN A   7      25.136   7.060  18.853  0.00  0.00    +0.241 C 
ATOM     13  O   ASN A   7      26.335   7.222  18.622  0.00  0.00    -0.273 OA
ATOM     14  N   ASN A   8      24.386   6.189  18.189  0.00  0.00    -0.298 N 
ATOM     15  H   ASN A   8      23.380   6.092  18.433  0.00  0.00    +0.150 HD
BRANCH  14  16
ATOM     16  CA  ASN A   8      24.945   5.368  17.126  0.00  0.00    +0.146 C 
BRANCH  16  17
ATOM     17  C   ASN A   8      26.106   4.529  17.655  0.00  0.00    +0.227 C 
ATOM     18  O   ASN A   8      27.212   4.542  17.112  0.00  0.00    -0.286 OA
ENDBRANCH  16  17
BRANCH  16  19
ATOM     19  CB  ASN A   8      25.406   6.258  15.970  0.00  0.00    +0.112 C 
BRANCH  19  20
ATOM     20  CG  ASN A   8      26.005   5.467  14.832  0.00  0.00    +0.222 C 
ATOM     21  OD1 ASN A   8      25.439   4.468  14.392  0.00  0.00    -0.275 OA
ATOM     22  ND2 ASN A   8      27.155   5.913  14.345  0.00  0.00    -0.329 N 
ATOM     23 HD21 ASN A   8      27.596   6.763  14.750  0.00  0.00    +0.145 HD
ATOM     24 HD22 ASN A   8      27.615   5.413  13.558  0.00  0.00    +0.145 HD
ENDBRANCH  19  20
ENDBRANCH  16  19
ENDBRANCH  14  16
ENDBRANCH  11  12
BRANCH  11  25
ATOM     25  CB  ASN A   7      24.081   9.252  19.432  0.00  0.00    +0.114 C 
BRANCH  25  26
ATOM     26  CG  ASN A   7      23.358   9.212  18.100  0.00  0.00    +0.222 C 
ATOM     27  OD1 ASN A   7      22.251   8.680  17.993  0.00  0.00    -0.275 OA
ATOM     28  ND2 ASN A   7      23.984   9.774  17.073  0.00  0.00    -0.329 N 
ATOM     29 HD21 ASN A   7      24.918  10.212  17.209  0.00  0.00    +0.145 HD
ATOM     30 HD22 ASN A   7      23.541   9.777  16.132  0.00  0.00    +0.145 HD
ENDBRANCH  25  26
ENDBRANCH  11  25
ENDBRANCH   9  11
ENDBRANCH   6   7
BRANCH   6  31
ATOM     31  CB  PHE A   6      25.670   7.826  24.648  0.00  0.00    +0.055 C 
BRANCH  31  32
ATOM     32  CG  PHE A   6      26.708   7.884  25.729  0.00  0.00    -0.020 A 
ATOM     33  CD2 PHE A   6      26.970   9.071  26.403  0.00  0.00    -0.004 A 
ATOM     34  CE2 PHE A   6      27.977   9.138  27.364  0.00  0.00    -0.000 A 
ATOM     35  CZ  PHE A   6      28.729   8.005  27.655  0.00  0.00    -0.000 A 
ATOM     36  CE1 PHE A   6      28.471   6.814  26.988  0.00  0.00    -0.000 A 
ATOM     37  CD1 PHE A   6      27.467   6.758  26.034  0.00  0.00    -0.004 A 
ENDBRANCH  31  32
ENDBRANCH   6  31
ENDBRANCH   3   6
ENDBRANCH   1   2
BRANCH   1  39
ATOM     38  C   MET A   4      29.240  10.662  20.416  0.00  0.00    +0.241 C 
ATOM     39  N   ASP A   5      29.119  10.513  21.731  0.00  0.00    -0.297 N 
ATOM     40  H   ASP A   5      28.723  11.292  22.295  0.00  0.00    +0.150 HD
ATOM     41  O   MET A   4      29.649   9.769  19.673  0.00  0.00    -0.273 OA
BRANCH  38  42
ATOM     42  CA  MET A   4      28.826  12.017  19.844  0.00  0.00    +0.149 C 
BRANCH  42  44
ATOM     43  C   LEU A   3      26.459  11.939  20.382  0.00  0.00    +0.241 C 
ATOM     44  N   MET A   4      27.630  12.555  20.475  0.00  0.00    -0.297 N 
ATOM     45  H   MET A   4      27.695  13.444  21.012  0.00  0.00    +0.150 HD
ATOM     46  O   LEU A   3      26.310  10.881  19.773  0.00  0.00    -0.273 OA
BRANCH  43  47
ATOM     47  CA  LEU A   3      25.288  12.611  21.087  0.00  0.00    +0.149 C 
BRANCH  47  50
ATOM     48  C   PRO A   2      26.054  12.152  23.318  0.00  0.00    +0.241 C 
ATOM     49  O   PRO A   2      26.072  10.950  23.058  0.00  0.00    -0.273 OA
ATOM     50  N   LEU A   3      25.686  13.057  22.419  0.00  0.00    -0.297 N 
ATOM     51  H   LEU A   3      25.681  14.069  22.660  0.00  0.00    +0.150 HD
BRANCH  48  57
ATOM     52  C   HIS A   1      28.671  13.614  24.096  0.00  0.00    +0.242 C 
ATOM     53  N   PRO A   2      27.559  13.586  24.848  0.00  0.00    -0.272 N 
ATOM     54  CD  PRO A   2      27.216  14.620  25.843  0.00  0.00    +0.094 C 
ATOM     55  CG  PRO A   2      26.056  13.981  26.587  0.00  0.00    +0.024 C 
ATOM     56  CB  PRO A   2      25.321  13.315  25.464  0.00  0.00    +0.031 C 
ATOM     57  CA  PRO A   2      26.456  12.632  24.708  0.00  0.00    +0.152 C 
ATOM     58  O   HIS A   1      28.871  12.817  23.187  0.00  0.00    -0.273 OA
BRANCH  52  59
ATOM     59  CA  HIS A   1      29.693  14.682  24.439  0.00  0.00    +0.151 C 
BRANCH  59  60
ATOM     60  N   HIS A   1      30.421  14.028  25.516  0.00  0.00    -0.238 NA
ATOM     61  H   HIS A   1      30.772  13.062  25.361  0.00  0.00    +0.142 HD
ENDBRANCH  59  60
BRANCH  59  62
ATOM     62  CB  HIS A   1      30.646  14.963  23.278  0.00  0.00    +0.074 C 
BRANCH  62  63
ATOM     63  CG  HIS A   1      31.821  15.803  23.671  0.00  0.00    +0.082 A 
ATOM     64  ND1 HIS A   1      31.687  17.101  24.114  0.00  0.00    -0.227 NA
ATOM     65  CE1 HIS A   1      32.874  17.575  24.448  0.00  0.00    +0.199 A 
ATOM     66  NE2 HIS A   1      33.773  16.633  24.234  0.00  0.00    -0.221 NA
ATOM     67  CD2 HIS A   1      33.142  15.515  23.746  0.00  0.00    +0.115 A 
ENDBRANCH  62  63
ENDBRANCH  59  62
ENDBRANCH  52  59
ENDBRANCH  48  57
ENDBRANCH  47  50
BRANCH  47  68
ATOM     68  CB  LEU A   3      24.782  13.786  20.246  0.00  0.00    +0.029 C 
BRANCH  68  69
ATOM     69  CG  LEU A   3      24.177  13.398  18.894  0.00  0.00    +0.002 C 
ATOM     70  CD2 LEU A   3      22.942  12.554  19.122  0.00  0.00    +0.000 C 
ATOM     71  CD1 LEU A   3      23.822  14.643  18.101  0.00  0.00    +0.000 C 
ENDBRANCH  68  69
ENDBRANCH  47  68
ENDBRANCH  43  47
ENDBRANCH  42  44
BRANCH  42  72
ATOM     72  CB  MET A   4      29.985  13.006  20.002  0.00  0.00    +0.041 C 
BRANCH  72  73
ATOM     73  CG  MET A   4      31.335  12.452  19.580  0.00  0.00    +0.060 C 
BRANCH  73  74
ATOM     74  SD  MET A   4      32.678  13.614  19.869  0.00  0.00    -0.139 S 
ATOM     75  CE  MET A   4      32.703  14.447  18.316  0.00  0.00    +0.069 C 
ENDBRANCH  73  74
ENDBRANCH  72  73
ENDBRANCH  42  72
ENDBRANCH  38  42
ENDBRANCH   1  39
BRANCH   1  76
ATOM     76  CB  ASP A   5      30.040   9.598  23.809  0.00  0.00    +0.143 C 
BRANCH  76  77
ATOM     77  CG  ASP A   5      31.142  10.626  23.813  0.00  0.00    +0.367 C 
ATOM     78  OD2 ASP A   5      31.250  11.358  24.816  0.00  0.00    -0.246 OA
ATOM     79  OD1 ASP A   5      31.906  10.688  22.828  0.00  0.00    -0.246 OA
ENDBRANCH  76  77
ENDBRANCH   1  76
TORSDOF 30
REMARK  Name = ../refined-set-2016/1hn4/1hn4_pocket.pdb
REMARK  322 active torsions:
REMARK  status: ('A' for Active; 'I' for Inactive)
REMARK    1  A    between atoms: _1  and  _5
REMARK    2  A    between atoms: _5  and  _6
REMARK    3  A    between atoms: _8  and  _10
REMARK    4  A    between atoms: _10  and  _11
REMARK    5  A    between atoms: _10  and  _13
REMARK    6  A    between atoms: _13  and  _14
REMARK    7  A    between atoms: _17  and  _19
REMARK    8  A    between atoms: _19  and  _20
REMARK    9  A    between atoms: _19  and  _22
REMARK   10  A    between atoms: _22  and  _23
REMARK   11  A    between atoms: _25  and  _27
REMARK   12  A    between atoms: _27  and  _28
REMARK   13  A    between atoms: _27  and  _30
REMARK   14  A    between atoms: _30  and  _31
REMARK   15  A    between atoms: _33  and  _35
REMARK   16  A    between atoms: _35  and  _36
REMARK   17  A    between atoms: _35  and  _38
REMARK   18  A    between atoms: _38  and  _39
REMARK   19  A    between atoms: _39  and  _40
REMARK   20  A    between atoms: _40  and  _41
REMARK   21  A    between atoms: _50  and  _52
REMARK   22  A    between atoms: _52  and  _53
REMARK   23  A    between atoms: _56  and  _58
REMARK   24  A    between atoms: _58  and  _59
REMARK   25  A    between atoms: _58  and  _61
REMARK   26  A    between atoms: _61  and  _62
REMARK   27  A    between atoms: _65  and  _67
REMARK   28  A    between atoms: _67  and  _68
REMARK   29  A    between atoms: _67  and  _70
REMARK   30  A    between atoms: _70  and  _71
REMARK   31  A    between atoms: _81  and  _83
REMARK   32  A    between atoms: _83  and  _84
REMARK   33  A    between atoms: _83  and  _86
REMARK   34  A    between atoms: _86  and  _87
REMARK   35  A    between atoms: _87  and  _88
REMARK   36  A    between atoms: _93  and  _95
REMARK   37  A    between atoms: _95  and  _96
REMARK   38  A    between atoms: _95  and  _98
REMARK   39  A    between atoms: _98  and  _99
REMARK   40  A    between atoms: _105  and  _107
REMARK   41  A    between atoms: _107  and  _108
REMARK   42  A    between atoms: _107  and  _110
REMARK   43  A    between atoms: _110  and  _111
REMARK   44  A    between atoms: _111  and  _112
REMARK   45  A    between atoms: _112  and  _113
REMARK   46  A    between atoms: _122  and  _124
REMARK   47  A    between atoms: _124  and  _125
REMARK   48  A    between atoms: _124  and  _127
REMARK   49  A    between atoms: _127  and  _128
REMARK   50  A    between atoms: _130  and  _132
REMARK   51  A    between atoms: _132  and  _133
REMARK   52  A    between atoms: _132  and  _135
REMARK   53  A    between atoms: _135  and  _136
REMARK   54  A    between atoms: _136  and  _137
REMARK   55  A    between atoms: _139  and  _141
REMARK   56  A    between atoms: _141  and  _142
REMARK   57  A    between atoms: _141  and  _144
REMARK   58  A    between atoms: _144  and  _145
REMARK   59  A    between atoms: _148  and  _150
REMARK   60  A    between atoms: _150  and  _151
REMARK   61  A    between atoms: _150  and  _153
REMARK   62  A    between atoms: _153  and  _154
REMARK   63  A    between atoms: _154  and  _155
REMARK   64  A    between atoms: _155  and  _156
REMARK   65  A    between atoms: _156  and  _157
REMARK   66  A    between atoms: _161  and  _163
REMARK   67  A    between atoms: _163  and  _164
REMARK   68  A    between atoms: _163  and  _166
REMARK   69  A    between atoms: _166  and  _167
REMARK   70  A    between atoms: _173  and  _174
REMARK   71  A    between atoms: _179  and  _181
REMARK   72  A    between atoms: _181  and  _182
REMARK   73  A    between atoms: _181  and  _184
REMARK   74  A    between atoms: _184  and  _185
REMARK   75  A    between atoms: _188  and  _190
REMARK   76  A    between atoms: _190  and  _191
REMARK   77  A    between atoms: _190  and  _193
REMARK   78  A    between atoms: _193  and  _194
REMARK   79  A    between atoms: _194  and  _195
REMARK   80  A    between atoms: _197  and  _199
REMARK   81  A    between atoms: _199  and  _200
REMARK   82  A    between atoms: _199  and  _202
REMARK   83  A    between atoms: _202  and  _203
REMARK   84  A    between atoms: _206  and  _208
REMARK   85  A    between atoms: _208  and  _209
REMARK   86  A    between atoms: _208  and  _211
REMARK   87  A    between atoms: _211  and  _212
REMARK   88  A    between atoms: _218  and  _220
REMARK   89  A    between atoms: _220  and  _221
REMARK   90  A    between atoms: _220  and  _223
REMARK   91  A    between atoms: _223  and  _224
REMARK   92  A    between atoms: _229  and  _231
REMARK   93  A    between atoms: _231  and  _232
REMARK   94  A    between atoms: _231  and  _234
REMARK   95  A    between atoms: _234  and  _235
REMARK   96  A    between atoms: _240  and  _242
REMARK   97  A    between atoms: _242  and  _243
REMARK   98  A    between atoms: _242  and  _245
REMARK   99  A    between atoms: _245  and  _246
REMARK  100  A    between atoms: _251  and  _252
REMARK  101  A    between atoms: _254  and  _256
REMARK  102  A    between atoms: _256  and  _257
REMARK  103  A    between atoms: _256  and  _259
REMARK  104  A    between atoms: _261  and  _263
REMARK  105  A    between atoms: _263  and  _264
REMARK  106  A    between atoms: _263  and  _266
REMARK  107  A    between atoms: _266  and  _267
REMARK  108  A    between atoms: _272  and  _273
REMARK  109  A    between atoms: _277  and  _280
REMARK  110  A    between atoms: _280  and  _281
REMARK  111  A    between atoms: _281  and  _354
REMARK  112  A    between atoms: _285  and  _287
REMARK  113  A    between atoms: _287  and  _289
REMARK  114  A    between atoms: _289  and  _290
REMARK  115  A    between atoms: _289  and  _292
REMARK  116  A    between atoms: _292  and  _293
REMARK  117  A    between atoms: _296  and  _298
REMARK  118  A    between atoms: _298  and  _299
REMARK  119  A    between atoms: _301  and  _303
REMARK  120  A    between atoms: _303  and  _304
REMARK  121  A    between atoms: _306  and  _308
REMARK  122  A    between atoms: _308  and  _309
REMARK  123  A    between atoms: _308  and  _311
REMARK  124  A    between atoms: _311  and  _312
REMARK  125  A    between atoms: _315  and  _317
REMARK  126  A    between atoms: _317  and  _318
REMARK  127  A    between atoms: _317  and  _320
REMARK  128  A    between atoms: _320  and  _321
REMARK  129  A    between atoms: _324  and  _326
REMARK  130  A    between atoms: _326  and  _327
REMARK  131  A    between atoms: _326  and  _329
REMARK  132  A    between atoms: _329  and  _330
REMARK  133  A    between atoms: _330  and  _331
REMARK  134  A    between atoms: _331  and  _332
REMARK  135  A    between atoms: _341  and  _343
REMARK  136  A    between atoms: _343  and  _344
REMARK  137  A    between atoms: _343  and  _346
REMARK  138  A    between atoms: _348  and  _350
REMARK  139  A    between atoms: _350  and  _351
REMARK  140  A    between atoms: _350  and  _353
REMARK  141  A    between atoms: _353  and  _354
REMARK  142  A    between atoms: _355  and  _357
REMARK  143  A    between atoms: _357  and  _358
REMARK  144  A    between atoms: _357  and  _360
REMARK  145  A    between atoms: _360  and  _361
REMARK  146  A    between atoms: _361  and  _362
REMARK  147  A    between atoms: _365  and  _367
REMARK  148  A    between atoms: _367  and  _368
REMARK  149  A    between atoms: _367  and  _370
REMARK  150  A    between atoms: _370  and  _371
REMARK  151  A    between atoms: _374  and  _376
REMARK  152  A    between atoms: _376  and  _377
REMARK  153  A    between atoms: _376  and  _379
REMARK  154  A    between atoms: _379  and  _380
REMARK  155  A    between atoms: _385  and  _387
REMARK  156  A    between atoms: _387  and  _388
REMARK  157  A    between atoms: _387  and  _390
REMARK  158  A    between atoms: _390  and  _391
REMARK  159  A    between atoms: _394  and  _396
REMARK  160  A    between atoms: _396  and  _397
REMARK  161  A    between atoms: _396  and  _399
REMARK  162  A    between atoms: _399  and  _400
REMARK  163  A    between atoms: _405  and  _407
REMARK  164  A    between atoms: _407  and  _408
REMARK  165  A    between atoms: _407  and  _410
REMARK  166  A    between atoms: _410  and  _411
REMARK  167  A    between atoms: _411  and  _480
REMARK  168  A    between atoms: _412  and  _414
REMARK  169  A    between atoms: _414  and  _415
REMARK  170  A    between atoms: _414  and  _417
REMARK  171  A    between atoms: _417  and  _418
REMARK  172  A    between atoms: _423  and  _424
REMARK  173  A    between atoms: _426  and  _428
REMARK  174  A    between atoms: _428  and  _429
REMARK  175  A    between atoms: _428  and  _431
REMARK  176  A    between atoms: _431  and  _432
REMARK  177  A    between atoms: _432  and  _433
REMARK  178  A    between atoms: _433  and  _434
REMARK  179  A    between atoms: _443  and  _445
REMARK  180  A    between atoms: _445  and  _446
REMARK  181  A    between atoms: _445  and  _448
REMARK  182  A    between atoms: _448  and  _449
REMARK  183  A    between atoms: _452  and  _454
REMARK  184  A    between atoms: _454  and  _455
REMARK  185  A    between atoms: _454  and  _457
REMARK  186  A    between atoms: _457  and  _458
REMARK  187  A    between atoms: _458  and  _459
REMARK  188  A    between atoms: _459  and  _460
REMARK  189  A    between atoms: _460  and  _461
REMARK  190  A    between atoms: _465  and  _467
REMARK  191  A    between atoms: _467  and  _468
REMARK  192  A    between atoms: _467  and  _470
REMARK  193  A    between atoms: _470  and  _471
REMARK  194  A    between atoms: _474  and  _476
REMARK  195  A    between atoms: _476  and  _477
REMARK  196  A    between atoms: _476  and  _479
REMARK  197  A    between atoms: _479  and  _480
REMARK  198  A    between atoms: _481  and  _483
REMARK  199  A    between atoms: _483  and  _484
REMARK  200  A    between atoms: _483  and  _486
REMARK  201  A    between atoms: _486  and  _487
REMARK  202  A    between atoms: _490  and  _492
REMARK  203  A    between atoms: _492  and  _493
REMARK  204  A    between atoms: _496  and  _498
REMARK  205  A    between atoms: _498  and  _499
REMARK  206  A    between atoms: _502  and  _504
REMARK  207  A    between atoms: _504  and  _505
REMARK  208  A    between atoms: _504  and  _507
REMARK  209  A    between atoms: _507  and  _508
REMARK  210  A    between atoms: _514  and  _516
REMARK  211  A    between atoms: _516  and  _517
REMARK  212  A    between atoms: _516  and  _519
REMARK  213  A    between atoms: _519  and  _520
REMARK  214  A    between atoms: _522  and  _524
REMARK  215  A    between atoms: _524  and  _525
REMARK  216  A    between atoms: _524  and  _527
REMARK  217  A    between atoms: _527  and  _528
REMARK  218  A    between atoms: _530  and  _532
REMARK  219  A    between atoms: _532  and  _533
REMARK  220  A    between atoms: _532  and  _535
REMARK  221  A    between atoms: _535  and  _536
REMARK  222  A    between atoms: _536  and  _537
REMARK  223  A    between atoms: _537  and  _538
REMARK  224  A    between atoms: _547  and  _549
REMARK  225  A    between atoms: _549  and  _550
REMARK  226  A    between atoms: _553  and  _555
REMARK  227  A    between atoms: _555  and  _556
REMARK  228  A    between atoms: _555  and  _558
REMARK  229  A    between atoms: _558  and  _559
REMARK  230  A    between atoms: _562  and  _564
REMARK  231  A    between atoms: _564  and  _565
REMARK  232  A    between atoms: _564  and  _567
REMARK  233  A    between atoms: _567  and  _568
REMARK  234  A    between atoms: _578  and  _580
REMARK  235  A    between atoms: _580  and  _581
REMARK  236  A    between atoms: _580  and  _583
REMARK  237  A    between atoms: _583  and  _584
REMARK  238  A    between atoms: _584  and  _585
REMARK  239  A    between atoms: _590  and  _592
REMARK  240  A    between atoms: _592  and  _593
REMARK  241  A    between atoms: _592  and  _595
REMARK  242  A    between atoms: _595  and  _596
REMARK  243  A    between atoms: _602  and  _604
REMARK  244  A    between atoms: _604  and  _605
REMARK  245  A    between atoms: _604  and  _607
REMARK  246  A    between atoms: _607  and  _608
REMARK  247  A    between atoms: _608  and  _609
REMARK  248  A    between atoms: _609  and  _610
REMARK  249  A    between atoms: _619  and  _621
REMARK  250  A    between atoms: _621  and  _622
REMARK  251  A    between atoms: _621  and  _624
REMARK  252  A    between atoms: _624  and  _625
REMARK  253  A    between atoms: _627  and  _629
REMARK  254  A    between atoms: _629  and  _630
REMARK  255  A    between atoms: _629  and  _632
REMARK  256  A    between atoms: _632  and  _633
REMARK  257  A    between atoms: _633  and  _634
REMARK  258  A    between atoms: _636  and  _638
REMARK  259  A    between atoms: _638  and  _639
REMARK  260  A    between atoms: _638  and  _641
REMARK  261  A    between atoms: _641  and  _642
REMARK  262  A    between atoms: _645  and  _647
REMARK  263  A    between atoms: _647  and  _648
REMARK  264  A    between atoms: _647  and  _650
REMARK  265  A    between atoms: _650  and  _651
REMARK  266  A    between atoms: _651  and  _652
REMARK  267  A    between atoms: _652  and  _653
REMARK  268  A    between atoms: _653  and  _654
REMARK  269  A    between atoms: _658  and  _660
REMARK  270  A    between atoms: _660  and  _661
REMARK  271  A    between atoms: _660  and  _663
REMARK  272  A    between atoms: _663  and  _664
REMARK  273  A    between atoms: _670  and  _671
REMARK  274  A    between atoms: _676  and  _678
REMARK  275  A    between atoms: _678  and  _679
REMARK  276  A    between atoms: _678  and  _681
REMARK  277  A    between atoms: _681  and  _682
REMARK  278  A    between atoms: _685  and  _687
REMARK  279  A    between atoms: _687  and  _688
REMARK  280  A    between atoms: _687  and  _690
REMARK  281  A    between atoms: _690  and  _691
REMARK  282  A    between atoms: _691  and  _692
REMARK  283  A    between atoms: _694  and  _696
REMARK  284  A    between atoms: _696  and  _697
REMARK  285  A    between atoms: _696  and  _699
REMARK  286  A    between atoms: _699  and  _700
REMARK  287  A    between atoms: _703  and  _705
REMARK  288  A    between atoms: _705  and  _706
REMARK  289  A    between atoms: _705  and  _708
REMARK  290  A    between atoms: _708  and  _709
REMARK  291  A    between atoms: _715  and  _717
REMARK  292  A    between atoms: _717  and  _718
REMARK  293  A    between atoms: _717  and  _720
REMARK  294  A    between atoms: _720  and  _721
REMARK  295  A    between atoms: _726  and  _728
REMARK  296  A    between atoms: _728  and  _729
REMARK  297  A    between atoms: _728  and  _731
REMARK  298  A    between atoms: _731  and  _732
REMARK  299  A    between atoms: _737  and  _739
REMARK  300  A    between atoms: _739  and  _740
REMARK  301  A    between atoms: _739  and  _742
REMARK  302  A    between atoms: _742  and  _743
REMARK  303  A    between atoms: _743  and  _755
REMARK  304  A    between atoms: _744  and  _746
REMARK  305  A    between atoms: _746  and  _747
REMARK  306  A    between atoms: _749  and  _751
REMARK  307  A    between atoms: _751  and  _752
REMARK  308  A    between atoms: _751  and  _754
REMARK  309  A    between atoms: _754  and  _755
REMARK  310  A    between atoms: _756  and  _758
REMARK  311  A    between atoms: _758  and  _759
REMARK  312  A    between atoms: _758  and  _761
REMARK  313  A    between atoms: _761  and  _762
REMARK  314  A    between atoms: _767  and  _769
REMARK  315  A    between atoms: _769  and  _770
REMARK  316  A    between atoms: _769  and  _772
REMARK  317  A    between atoms: _772  and  _773
REMARK  318  A    between atoms: _778  and  _779
REMARK  319  A    between atoms: _781  and  _783
REMARK  320  A    between atoms: _783  and  _784
REMARK  321  A    between atoms: _783  and  _786
REMARK  322  A    between atoms: _786  and  _787
REMARK                            x       y       z     vdW  Elec       q    Type
REMARK                         _______ _______ _______ _____ _____    ______ ____
ROOT
ATOM      1  CA  CYS A   1      22.534   3.308  21.792  0.00  0.00    +0.156 C 
ENDROOT
BRANCH   1   2
ATOM      2  C   CYS A   1      22.181   4.102  20.543  0.00  0.00    +0.239 C 
ATOM      3  N   GLY A   2      21.030   4.763  20.585  0.00  0.00    -0.297 N 
ATOM      4  H   GLY A   2      20.450   4.727  21.448  0.00  0.00    +0.150 HD
ATOM      5  O   CYS A   1      22.923   4.106  19.565  0.00  0.00    -0.274 OA
BRANCH   3   6
ATOM      6  CA  GLY A   2      20.568   5.535  19.446  0.00  0.00    +0.163 C 
BRANCH   6   7
ATOM      7  C   GLY A   2      19.098   5.252  19.204  0.00  0.00    +0.229 C 
ATOM      8  O   GLY A   2      18.377   4.891  20.135  0.00  0.00    -0.286 OA
ENDBRANCH   6   7
ENDBRANCH   3   6
ENDBRANCH   1   2
BRANCH   1   9
ATOM      9  N   CYS A   1      22.288   1.896  21.531  0.00  0.00    -0.237 NA
ATOM     10  H   CYS A   1      23.071   1.270  21.255  0.00  0.00    +0.142 HD
ENDBRANCH   1   9
BRANCH   1  11
ATOM     11  CB  CYS A   1      23.994   3.542  22.180  0.00  0.00    +0.095 C 
BRANCH  11  12
ATOM     12  SG  CYS A   1      24.548   2.609  23.646  0.00  0.00    -0.080 S 
BRANCH  12  13
ATOM     13  SG  CYS A   1      23.244   3.131  25.116  0.00  0.00    -0.080 S 
BRANCH  13  14
ATOM     14  CB  CYS A   1      21.938   1.864  25.056  0.00  0.00    +0.094 C 
BRANCH  14  15
ATOM     15  CA  CYS A   1      21.260   1.675  26.414  0.00  0.00    +0.145 C 
BRANCH  15  16
ATOM     16  N   CYS A   1      22.175   1.064  27.364  0.00  0.00    -0.238 NA
ATOM     17  H   CYS A   1      23.080   0.679  27.027  0.00  0.00    +0.142 HD
ENDBRANCH  15  16
BRANCH  15  18
ATOM     18  C   CYS A   1      19.985   0.870  26.254  0.00  0.00    +0.225 C 
ATOM     19  O   CYS A   1      18.899   1.442  26.186  0.00  0.00    -0.287 OA
ENDBRANCH  15  18
ENDBRANCH  14  15
ENDBRANCH  13  14
ENDBRANCH  12  13
ENDBRANCH  11  12
ENDBRANCH   1  11
TORSDOF 11
REMARK  Name = ../refined-set-2016/1hn4/1hn4_pocket.pdb
REMARK  322 active torsions:
REMARK  status: ('A' for Active; 'I' for Inactive)
REMARK    1  A    between atoms: _1  and  _5
REMARK    2  A    between atoms: _5  and  _6
REMARK    3  A    between atoms: _8  and  _10
REMARK    4  A    between atoms: _10  and  _11
REMARK    5  A    between atoms: _10  and  _13
REMARK    6  A    between atoms: _13  and  _14
REMARK    7  A    between atoms: _17  and  _19
REMARK    8  A    between atoms: _19  and  _20
REMARK    9  A    between atoms: _19  and  _22
REMARK   10  A    between atoms: _22  and  _23
REMARK   11  A    between atoms: _25  and  _27
REMARK   12  A    between atoms: _27  and  _28
REMARK   13  A    between atoms: _27  and  _30
REMARK   14  A    between atoms: _30  and  _31
REMARK   15  A    between atoms: _33  and  _35
REMARK   16  A    between atoms: _35  and  _36
REMARK   17  A    between atoms: _35  and  _38
REMARK   18  A    between atoms: _38  and  _39
REMARK   19  A    between atoms: _39  and  _40
REMARK   20  A    between atoms: _40  and  _41
REMARK   21  A    between atoms: _50  and  _52
REMARK   22  A    between atoms: _52  and  _53
REMARK   23  A    between atoms: _56  and  _58
REMARK   24  A    between atoms: _58  and  _59
REMARK   25  A    between atoms: _58  and  _61
REMARK   26  A    between atoms: _61  and  _62
REMARK   27  A    between atoms: _65  and  _67
REMARK   28  A    between atoms: _67  and  _68
REMARK   29  A    between atoms: _67  and  _70
REMARK   30  A    between atoms: _70  and  _71
REMARK   31  A    between atoms: _81  and  _83
REMARK   32  A    between atoms: _83  and  _84
REMARK   33  A    between atoms: _83  and  _86
REMARK   34  A    between atoms: _86  and  _87
REMARK   35  A    between atoms: _87  and  _88
REMARK   36  A    between atoms: _93  and  _95
REMARK   37  A    between atoms: _95  and  _96
REMARK   38  A    between atoms: _95  and  _98
REMARK   39  A    between atoms: _98  and  _99
REMARK   40  A    between atoms: _105  and  _107
REMARK   41  A    between atoms: _107  and  _108
REMARK   42  A    between atoms: _107  and  _110
REMARK   43  A    between atoms: _110  and  _111
REMARK   44  A    between atoms: _111  and  _112
REMARK   45  A    between atoms: _112  and  _113
REMARK   46  A    between atoms: _122  and  _124
REMARK   47  A    between atoms: _124  and  _125
REMARK   48  A    between atoms: _124  and  _127
REMARK   49  A    between atoms: _127  and  _128
REMARK   50  A    between atoms: _130  and  _132
REMARK   51  A    between atoms: _132  and  _133
REMARK   52  A    between atoms: _132  and  _135
REMARK   53  A    between atoms: _135  and  _136
REMARK   54  A    between atoms: _136  and  _137
REMARK   55  A    between atoms: _139  and  _141
REMARK   56  A    between atoms: _141  and  _142
REMARK   57  A    between atoms: _141  and  _144
REMARK   58  A    between atoms: _144  and  _145
REMARK   59  A    between atoms: _148  and  _150
REMARK   60  A    between atoms: _150  and  _151
REMARK   61  A    between atoms: _150  and  _153
REMARK   62  A    between atoms: _153  and  _154
REMARK   63  A    between atoms: _154  and  _155
REMARK   64  A    between atoms: _155  and  _156
REMARK   65  A    between atoms: _156  and  _157
REMARK   66  A    between atoms: _161  and  _163
REMARK   67  A    between atoms: _163  and  _164
REMARK   68  A    between atoms: _163  and  _166
REMARK   69  A    between atoms: _166  and  _167
REMARK   70  A    between atoms: _173  and  _174
REMARK   71  A    between atoms: _179  and  _181
REMARK   72  A    between atoms: _181  and  _182
REMARK   73  A    between atoms: _181  and  _184
REMARK   74  A    between atoms: _184  and  _185
REMARK   75  A    between atoms: _188  and  _190
REMARK   76  A    between atoms: _190  and  _191
REMARK   77  A    between atoms: _190  and  _193
REMARK   78  A    between atoms: _193  and  _194
REMARK   79  A    between atoms: _194  and  _195
REMARK   80  A    between atoms: _197  and  _199
REMARK   81  A    between atoms: _199  and  _200
REMARK   82  A    between atoms: _199  and  _202
REMARK   83  A    between atoms: _202  and  _203
REMARK   84  A    between atoms: _206  and  _208
REMARK   85  A    between atoms: _208  and  _209
REMARK   86  A    between atoms: _208  and  _211
REMARK   87  A    between atoms: _211  and  _212
REMARK   88  A    between atoms: _218  and  _220
REMARK   89  A    between atoms: _220  and  _221
REMARK   90  A    between atoms: _220  and  _223
REMARK   91  A    between atoms: _223  and  _224
REMARK   92  A    between atoms: _229  and  _231
REMARK   93  A    between atoms: _231  and  _232
REMARK   94  A    between atoms: _231  and  _234
REMARK   95  A    between atoms: _234  and  _235
REMARK   96  A    between atoms: _240  and  _242
REMARK   97  A    between atoms: _242  and  _243
REMARK   98  A    between atoms: _242  and  _245
REMARK   99  A    between atoms: _245  and  _246
REMARK  100  A    between atoms: _251  and  _252
REMARK  101  A    between atoms: _254  and  _256
REMARK  102  A    between atoms: _256  and  _257
REMARK  103  A    between atoms: _256  and  _259
REMARK  104  A    between atoms: _261  and  _263
REMARK  105  A    between atoms: _263  and  _264
REMARK  106  A    between atoms: _263  and  _266
REMARK  107  A    between atoms: _266  and  _267
REMARK  108  A    between atoms: _272  and  _273
REMARK  109  A    between atoms: _277  and  _280
REMARK  110  A    between atoms: _280  and  _281
REMARK  111  A    between atoms: _281  and  _354
REMARK  112  A    between atoms: _285  and  _287
REMARK  113  A    between atoms: _287  and  _289
REMARK  114  A    between atoms: _289  and  _290
REMARK  115  A    between atoms: _289  and  _292
REMARK  116  A    between atoms: _292  and  _293
REMARK  117  A    between atoms: _296  and  _298
REMARK  118  A    between atoms: _298  and  _299
REMARK  119  A    between atoms: _301  and  _303
REMARK  120  A    between atoms: _303  and  _304
REMARK  121  A    between atoms: _306  and  _308
REMARK  122  A    between atoms: _308  and  _309
REMARK  123  A    between atoms: _308  and  _311
REMARK  124  A    between atoms: _311  and  _312
REMARK  125  A    between atoms: _315  and  _317
REMARK  126  A    between atoms: _317  and  _318
REMARK  127  A    between atoms: _317  and  _320
REMARK  128  A    between atoms: _320  and  _321
REMARK  129  A    between atoms: _324  and  _326
REMARK  130  A    between atoms: _326  and  _327
REMARK  131  A    between atoms: _326  and  _329
REMARK  132  A    between atoms: _329  and  _330
REMARK  133  A    between atoms: _330  and  _331
REMARK  134  A    between atoms: _331  and  _332
REMARK  135  A    between atoms: _341  and  _343
REMARK  136  A    between atoms: _343  and  _344
REMARK  137  A    between atoms: _343  and  _346
REMARK  138  A    between atoms: _348  and  _350
REMARK  139  A    between atoms: _350  and  _351
REMARK  140  A    between atoms: _350  and  _353
REMARK  141  A    between atoms: _353  and  _354
REMARK  142  A    between atoms: _355  and  _357
REMARK  143  A    between atoms: _357  and  _358
REMARK  144  A    between atoms: _357  and  _360
REMARK  145  A    between atoms: _360  and  _361
REMARK  146  A    between atoms: _361  and  _362
REMARK  147  A    between atoms: _365  and  _367
REMARK  148  A    between atoms: _367  and  _368
REMARK  149  A    between atoms: _367  and  _370
REMARK  150  A    between atoms: _370  and  _371
REMARK  151  A    between atoms: _374  and  _376
REMARK  152  A    between atoms: _376  and  _377
REMARK  153  A    between atoms: _376  and  _379
REMARK  154  A    between atoms: _379  and  _380
REMARK  155  A    between atoms: _385  and  _387
REMARK  156  A    between atoms: _387  and  _388
REMARK  157  A    between atoms: _387  and  _390
REMARK  158  A    between atoms: _390  and  _391
REMARK  159  A    between atoms: _394  and  _396
REMARK  160  A    between atoms: _396  and  _397
REMARK  161  A    between atoms: _396  and  _399
REMARK  162  A    between atoms: _399  and  _400
REMARK  163  A    between atoms: _405  and  _407
REMARK  164  A    between atoms: _407  and  _408
REMARK  165  A    between atoms: _407  and  _410
REMARK  166  A    between atoms: _410  and  _411
REMARK  167  A    between atoms: _411  and  _480
REMARK  168  A    between atoms: _412  and  _414
REMARK  169  A    between atoms: _414  and  _415
REMARK  170  A    between atoms: _414  and  _417
REMARK  171  A    between atoms: _417  and  _418
REMARK  172  A    between atoms: _423  and  _424
REMARK  173  A    between atoms: _426  and  _428
REMARK  174  A    between atoms: _428  and  _429
REMARK  175  A    between atoms: _428  and  _431
REMARK  176  A    between atoms: _431  and  _432
REMARK  177  A    between atoms: _432  and  _433
REMARK  178  A    between atoms: _433  and  _434
REMARK  179  A    between atoms: _443  and  _445
REMARK  180  A    between atoms: _445  and  _446
REMARK  181  A    between atoms: _445  and  _448
REMARK  182  A    between atoms: _448  and  _449
REMARK  183  A    between atoms: _452  and  _454
REMARK  184  A    between atoms: _454  and  _455
REMARK  185  A    between atoms: _454  and  _457
REMARK  186  A    between atoms: _457  and  _458
REMARK  187  A    between atoms: _458  and  _459
REMARK  188  A    between atoms: _459  and  _460
REMARK  189  A    between atoms: _460  and  _461
REMARK  190  A    between atoms: _465  and  _467
REMARK  191  A    between atoms: _467  and  _468
REMARK  192  A    between atoms: _467  and  _470
REMARK  193  A    between atoms: _470  and  _471
REMARK  194  A    between atoms: _474  and  _476
REMARK  195  A    between atoms: _476  and  _477
REMARK  196  A    between atoms: _476  and  _479
REMARK  197  A    between atoms: _479  and  _480
REMARK  198  A    between atoms: _481  and  _483
REMARK  199  A    between atoms: _483  and  _484
REMARK  200  A    between atoms: _483  and  _486
REMARK  201  A    between atoms: _486  and  _487
REMARK  202  A    between atoms: _490  and  _492
REMARK  203  A    between atoms: _492  and  _493
REMARK  204  A    between atoms: _496  and  _498
REMARK  205  A    between atoms: _498  and  _499
REMARK  206  A    between atoms: _502  and  _504
REMARK  207  A    between atoms: _504  and  _505
REMARK  208  A    between atoms: _504  and  _507
REMARK  209  A    between atoms: _507  and  _508
REMARK  210  A    between atoms: _514  and  _516
REMARK  211  A    between atoms: _516  and  _517
REMARK  212  A    between atoms: _516  and  _519
REMARK  213  A    between atoms: _519  and  _520
REMARK  214  A    between atoms: _522  and  _524
REMARK  215  A    between atoms: _524  and  _525
REMARK  216  A    between atoms: _524  and  _527
REMARK  217  A    between atoms: _527  and  _528
REMARK  218  A    between atoms: _530  and  _532
REMARK  219  A    between atoms: _532  and  _533
REMARK  220  A    between atoms: _532  and  _535
REMARK  221  A    between atoms: _535  and  _536
REMARK  222  A    between atoms: _536  and  _537
REMARK  223  A    between atoms: _537  and  _538
REMARK  224  A    between atoms: _547  and  _549
REMARK  225  A    between atoms: _549  and  _550
REMARK  226  A    between atoms: _553  and  _555
REMARK  227  A    between atoms: _555  and  _556
REMARK  228  A    between atoms: _555  and  _558
REMARK  229  A    between atoms: _558  and  _559
REMARK  230  A    between atoms: _562  and  _564
REMARK  231  A    between atoms: _564  and  _565
REMARK  232  A    between atoms: _564  and  _567
REMARK  233  A    between atoms: _567  and  _568
REMARK  234  A    between atoms: _578  and  _580
REMARK  235  A    between atoms: _580  and  _581
REMARK  236  A    between atoms: _580  and  _583
REMARK  237  A    between atoms: _583  and  _584
REMARK  238  A    between atoms: _584  and  _585
REMARK  239  A    between atoms: _590  and  _592
REMARK  240  A    between atoms: _592  and  _593
REMARK  241  A    between atoms: _592  and  _595
REMARK  242  A    between atoms: _595  and  _596
REMARK  243  A    between atoms: _602  and  _604
REMARK  244  A    between atoms: _604  and  _605
REMARK  245  A    between atoms: _604  and  _607
REMARK  246  A    between atoms: _607  and  _608
REMARK  247  A    between atoms: _608  and  _609
REMARK  248  A    between atoms: _609  and  _610
REMARK  249  A    between atoms: _619  and  _621
REMARK  250  A    between atoms: _621  and  _622
REMARK  251  A    between atoms: _621  and  _624
REMARK  252  A    between atoms: _624  and  _625
REMARK  253  A    between atoms: _627  and  _629
REMARK  254  A    between atoms: _629  and  _630
REMARK  255  A    between atoms: _629  and  _632
REMARK  256  A    between atoms: _632  and  _633
REMARK  257  A    between atoms: _633  and  _634
REMARK  258  A    between atoms: _636  and  _638
REMARK  259  A    between atoms: _638  and  _639
REMARK  260  A    between atoms: _638  and  _641
REMARK  261  A    between atoms: _641  and  _642
REMARK  262  A    between atoms: _645  and  _647
REMARK  263  A    between atoms: _647  and  _648
REMARK  264  A    between atoms: _647  and  _650
REMARK  265  A    between atoms: _650  and  _651
REMARK  266  A    between atoms: _651  and  _652
REMARK  267  A    between atoms: _652  and  _653
REMARK  268  A    between atoms: _653  and  _654
REMARK  269  A    between atoms: _658  and  _660
REMARK  270  A    between atoms: _660  and  _661
REMARK  271  A    between atoms: _660  and  _663
REMARK  272  A    between atoms: _663  and  _664
REMARK  273  A    between atoms: _670  and  _671
REMARK  274  A    between atoms: _676  and  _678
REMARK  275  A    between atoms: _678  and  _679
REMARK  276  A    between atoms: _678  and  _681
REMARK  277  A    between atoms: _681  and  _682
REMARK  278  A    between atoms: _685  and  _687
REMARK  279  A    between atoms: _687  and  _688
REMARK  280  A    between atoms: _687  and  _690
REMARK  281  A    between atoms: _690  and  _691
REMARK  282  A    between atoms: _691  and  _692
REMARK  283  A    between atoms: _694  and  _696
REMARK  284  A    between atoms: _696  and  _697
REMARK  285  A    between atoms: _696  and  _699
REMARK  286  A    between atoms: _699  and  _700
REMARK  287  A    between atoms: _703  and  _705
REMARK  288  A    between atoms: _705  and  _706
REMARK  289  A    between atoms: _705  and  _708
REMARK  290  A    between atoms: _708  and  _709
REMARK  291  A    between atoms: _715  and  _717
REMARK  292  A    between atoms: _717  and  _718
REMARK  293  A    between atoms: _717  and  _720
REMARK  294  A    between atoms: _720  and  _721
REMARK  295  A    between atoms: _726  and  _728
REMARK  296  A    between atoms: _728  and  _729
REMARK  297  A    between atoms: _728  and  _731
REMARK  298  A    between atoms: _731  and  _732
REMARK  299  A    between atoms: _737  and  _739
REMARK  300  A    between atoms: _739  and  _740
REMARK  301  A    between atoms: _739  and  _742
REMARK  302  A    between atoms: _742  and  _743
REMARK  303  A    between atoms: _743  and  _755
REMARK  304  A    between atoms: _744  and  _746
REMARK  305  A    between atoms: _746  and  _747
REMARK  306  A    between atoms: _749  and  _751
REMARK  307  A    between atoms: _751  and  _752
REMARK  308  A    between atoms: _751  and  _754
REMARK  309  A    between atoms: _754  and  _755
REMARK  310  A    between atoms: _756  and  _758
REMARK  311  A    between atoms: _758  and  _759
REMARK  312  A    between atoms: _758  and  _761
REMARK  313  A    between atoms: _761  and  _762
REMARK  314  A    between atoms: _767  and  _769
REMARK  315  A    between atoms: _769  and  _770
REMARK  316  A    between atoms: _769  and  _772
REMARK  317  A    between atoms: _772  and  _773
REMARK  318  A    between atoms: _778  and  _779
REMARK  319  A    between atoms: _781  and  _783
REMARK  320  A    between atoms: _783  and  _784
REMARK  321  A    between atoms: _783  and  _786
REMARK  322  A    between atoms: _786  and  _787
REMARK                            x       y       z     vdW  Elec       q    Type
REMARK                         _______ _______ _______ _____ _____    ______ ____
ROOT
ATOM      1  CB  HIS A   1      18.311   3.949  28.638  0.00  0.00    +0.072 C 
ENDROOT
BRANCH   1   2
ATOM      2  CG  HIS A   1      17.829   5.364  28.706  0.00  0.00    +0.082 A 
ATOM      3  CD2 HIS A   1      17.685   6.206  29.756  0.00  0.00    +0.115 A 
ATOM      4  NE2 HIS A   1      17.197   7.391  29.263  0.00  0.00    -0.221 NA
ATOM      5  CE1 HIS A   1      17.045   7.281  27.956  0.00  0.00    +0.199 A 
ATOM      6  ND1 HIS A   1      17.418   6.066  27.594  0.00  0.00    -0.227 NA
ENDBRANCH   1   2
BRANCH   1   7
ATOM      7  CA  HIS A   1      17.264   2.920  29.068  0.00  0.00    +0.139 C 
BRANCH   7   8
ATOM      8  N   HIS A   1      17.859   1.595  29.137  0.00  0.00    -0.239 NA
ATOM      9  H   HIS A   1      18.829   1.442  28.793  0.00  0.00    +0.142 HD
ENDBRANCH   7   8
BRANCH   7  10
ATOM     10  C   HIS A   1      16.093   2.912  28.089  0.00  0.00    +0.224 C 
ATOM     11  O   HIS A   1      15.065   3.539  28.343  0.00  0.00    -0.287 OA
ENDBRANCH   7  10
ENDBRANCH   1   7
TORSDOF 4
REMARK  Name = ../refined-set-2016/1hn4/1hn4_pocket.pdb
REMARK  322 active torsions:
REMARK  status: ('A' for Active; 'I' for Inactive)
REMARK    1  A    between atoms: _1  and  _5
REMARK    2  A    between atoms: _5  and  _6
REMARK    3  A    between atoms: _8  and  _10
REMARK    4  A    between atoms: _10  and  _11
REMARK    5  A    between atoms: _10  and  _13
REMARK    6  A    between atoms: _13  and  _14
REMARK    7  A    between atoms: _17  and  _19
REMARK    8  A    between atoms: _19  and  _20
REMARK    9  A    between atoms: _19  and  _22
REMARK   10  A    between atoms: _22  and  _23
REMARK   11  A    between atoms: _25  and  _27
REMARK   12  A    between atoms: _27  and  _28
REMARK   13  A    between atoms: _27  and  _30
REMARK   14  A    between atoms: _30  and  _31
REMARK   15  A    between atoms: _33  and  _35
REMARK   16  A    between atoms: _35  and  _36
REMARK   17  A    between atoms: _35  and  _38
REMARK   18  A    between atoms: _38  and  _39
REMARK   19  A    between atoms: _39  and  _40
REMARK   20  A    between atoms: _40  and  _41
REMARK   21  A    between atoms: _50  and  _52
REMARK   22  A    between atoms: _52  and  _53
REMARK   23  A    between atoms: _56  and  _58
REMARK   24  A    between atoms: _58  and  _59
REMARK   25  A    between atoms: _58  and  _61
REMARK   26  A    between atoms: _61  and  _62
REMARK   27  A    between atoms: _65  and  _67
REMARK   28  A    between atoms: _67  and  _68
REMARK   29  A    between atoms: _67  and  _70
REMARK   30  A    between atoms: _70  and  _71
REMARK   31  A    between atoms: _81  and  _83
REMARK   32  A    between atoms: _83  and  _84
REMARK   33  A    between atoms: _83  and  _86
REMARK   34  A    between atoms: _86  and  _87
REMARK   35  A    between atoms: _87  and  _88
REMARK   36  A    between atoms: _93  and  _95
REMARK   37  A    between atoms: _95  and  _96
REMARK   38  A    between atoms: _95  and  _98
REMARK   39  A    between atoms: _98  and  _99
REMARK   40  A    between atoms: _105  and  _107
REMARK   41  A    between atoms: _107  and  _108
REMARK   42  A    between atoms: _107  and  _110
REMARK   43  A    between atoms: _110  and  _111
REMARK   44  A    between atoms: _111  and  _112
REMARK   45  A    between atoms: _112  and  _113
REMARK   46  A    between atoms: _122  and  _124
REMARK   47  A    between atoms: _124  and  _125
REMARK   48  A    between atoms: _124  and  _127
REMARK   49  A    between atoms: _127  and  _128
REMARK   50  A    between atoms: _130  and  _132
REMARK   51  A    between atoms: _132  and  _133
REMARK   52  A    between atoms: _132  and  _135
REMARK   53  A    between atoms: _135  and  _136
REMARK   54  A    between atoms: _136  and  _137
REMARK   55  A    between atoms: _139  and  _141
REMARK   56  A    between atoms: _141  and  _142
REMARK   57  A    between atoms: _141  and  _144
REMARK   58  A    between atoms: _144  and  _145
REMARK   59  A    between atoms: _148  and  _150
REMARK   60  A    between atoms: _150  and  _151
REMARK   61  A    between atoms: _150  and  _153
REMARK   62  A    between atoms: _153  and  _154
REMARK   63  A    between atoms: _154  and  _155
REMARK   64  A    between atoms: _155  and  _156
REMARK   65  A    between atoms: _156  and  _157
REMARK   66  A    between atoms: _161  and  _163
REMARK   67  A    between atoms: _163  and  _164
REMARK   68  A    between atoms: _163  and  _166
REMARK   69  A    between atoms: _166  and  _167
REMARK   70  A    between atoms: _173  and  _174
REMARK   71  A    between atoms: _179  and  _181
REMARK   72  A    between atoms: _181  and  _182
REMARK   73  A    between atoms: _181  and  _184
REMARK   74  A    between atoms: _184  and  _185
REMARK   75  A    between atoms: _188  and  _190
REMARK   76  A    between atoms: _190  and  _191
REMARK   77  A    between atoms: _190  and  _193
REMARK   78  A    between atoms: _193  and  _194
REMARK   79  A    between atoms: _194  and  _195
REMARK   80  A    between atoms: _197  and  _199
REMARK   81  A    between atoms: _199  and  _200
REMARK   82  A    between atoms: _199  and  _202
REMARK   83  A    between atoms: _202  and  _203
REMARK   84  A    between atoms: _206  and  _208
REMARK   85  A    between atoms: _208  and  _209
REMARK   86  A    between atoms: _208  and  _211
REMARK   87  A    between atoms: _211  and  _212
REMARK   88  A    between atoms: _218  and  _220
REMARK   89  A    between atoms: _220  and  _221
REMARK   90  A    between atoms: _220  and  _223
REMARK   91  A    between atoms: _223  and  _224
REMARK   92  A    between atoms: _229  and  _231
REMARK   93  A    between atoms: _231  and  _232
REMARK   94  A    between atoms: _231  and  _234
REMARK   95  A    between atoms: _234  and  _235
REMARK   96  A    between atoms: _240  and  _242
REMARK   97  A    between atoms: _242  and  _243
REMARK   98  A    between atoms: _242  and  _245
REMARK   99  A    between atoms: _245  and  _246
REMARK  100  A    between atoms: _251  and  _252
REMARK  101  A    between atoms: _254  and  _256
REMARK  102  A    between atoms: _256  and  _257
REMARK  103  A    between atoms: _256  and  _259
REMARK  104  A    between atoms: _261  and  _263
REMARK  105  A    between atoms: _263  and  _264
REMARK  106  A    between atoms: _263  and  _266
REMARK  107  A    between atoms: _266  and  _267
REMARK  108  A    between atoms: _272  and  _273
REMARK  109  A    between atoms: _277  and  _280
REMARK  110  A    between atoms: _280  and  _281
REMARK  111  A    between atoms: _281  and  _354
REMARK  112  A    between atoms: _285  and  _287
REMARK  113  A    between atoms: _287  and  _289
REMARK  114  A    between atoms: _289  and  _290
REMARK  115  A    between atoms: _289  and  _292
REMARK  116  A    between atoms: _292  and  _293
REMARK  117  A    between atoms: _296  and  _298
REMARK  118  A    between atoms: _298  and  _299
REMARK  119  A    between atoms: _301  and  _303
REMARK  120  A    between atoms: _303  and  _304
REMARK  121  A    between atoms: _306  and  _308
REMARK  122  A    between atoms: _308  and  _309
REMARK  123  A    between atoms: _308  and  _311
REMARK  124  A    between atoms: _311  and  _312
REMARK  125  A    between atoms: _315  and  _317
REMARK  126  A    between atoms: _317  and  _318
REMARK  127  A    between atoms: _317  and  _320
REMARK  128  A    between atoms: _320  and  _321
REMARK  129  A    between atoms: _324  and  _326
REMARK  130  A    between atoms: _326  and  _327
REMARK  131  A    between atoms: _326  and  _329
REMARK  132  A    between atoms: _329  and  _330
REMARK  133  A    between atoms: _330  and  _331
REMARK  134  A    between atoms: _331  and  _332
REMARK  135  A    between atoms: _341  and  _343
REMARK  136  A    between atoms: _343  and  _344
REMARK  137  A    between atoms: _343  and  _346
REMARK  138  A    between atoms: _348  and  _350
REMARK  139  A    between atoms: _350  and  _351
REMARK  140  A    between atoms: _350  and  _353
REMARK  141  A    between atoms: _353  and  _354
REMARK  142  A    between atoms: _355  and  _357
REMARK  143  A    between atoms: _357  and  _358
REMARK  144  A    between atoms: _357  and  _360
REMARK  145  A    between atoms: _360  and  _361
REMARK  146  A    between atoms: _361  and  _362
REMARK  147  A    between atoms: _365  and  _367
REMARK  148  A    between atoms: _367  and  _368
REMARK  149  A    between atoms: _367  and  _370
REMARK  150  A    between atoms: _370  and  _371
REMARK  151  A    between atoms: _374  and  _376
REMARK  152  A    between atoms: _376  and  _377
REMARK  153  A    between atoms: _376  and  _379
REMARK  154  A    between atoms: _379  and  _380
REMARK  155  A    between atoms: _385  and  _387
REMARK  156  A    between atoms: _387  and  _388
REMARK  157  A    between atoms: _387  and  _390
REMARK  158  A    between atoms: _390  and  _391
REMARK  159  A    between atoms: _394  and  _396
REMARK  160  A    between atoms: _396  and  _397
REMARK  161  A    between atoms: _396  and  _399
REMARK  162  A    between atoms: _399  and  _400
REMARK  163  A    between atoms: _405  and  _407
REMARK  164  A    between atoms: _407  and  _408
REMARK  165  A    between atoms: _407  and  _410
REMARK  166  A    between atoms: _410  and  _411
REMARK  167  A    between atoms: _411  and  _480
REMARK  168  A    between atoms: _412  and  _414
REMARK  169  A    between atoms: _414  and  _415
REMARK  170  A    between atoms: _414  and  _417
REMARK  171  A    between atoms: _417  and  _418
REMARK  172  A    between atoms: _423  and  _424
REMARK  173  A    between atoms: _426  and  _428
REMARK  174  A    between atoms: _428  and  _429
REMARK  175  A    between atoms: _428  and  _431
REMARK  176  A    between atoms: _431  and  _432
REMARK  177  A    between atoms: _432  and  _433
REMARK  178  A    between atoms: _433  and  _434
REMARK  179  A    between atoms: _443  and  _445
REMARK  180  A    between atoms: _445  and  _446
REMARK  181  A    between atoms: _445  and  _448
REMARK  182  A    between atoms: _448  and  _449
REMARK  183  A    between atoms: _452  and  _454
REMARK  184  A    between atoms: _454  and  _455
REMARK  185  A    between atoms: _454  and  _457
REMARK  186  A    between atoms: _457  and  _458
REMARK  187  A    between atoms: _458  and  _459
REMARK  188  A    between atoms: _459  and  _460
REMARK  189  A    between atoms: _460  and  _461
REMARK  190  A    between atoms: _465  and  _467
REMARK  191  A    between atoms: _467  and  _468
REMARK  192  A    between atoms: _467  and  _470
REMARK  193  A    between atoms: _470  and  _471
REMARK  194  A    between atoms: _474  and  _476
REMARK  195  A    between atoms: _476  and  _477
REMARK  196  A    between atoms: _476  and  _479
REMARK  197  A    between atoms: _479  and  _480
REMARK  198  A    between atoms: _481  and  _483
REMARK  199  A    between atoms: _483  and  _484
REMARK  200  A    between atoms: _483  and  _486
REMARK  201  A    between atoms: _486  and  _487
REMARK  202  A    between atoms: _490  and  _492
REMARK  203  A    between atoms: _492  and  _493
REMARK  204  A    between atoms: _496  and  _498
REMARK  205  A    between atoms: _498  and  _499
REMARK  206  A    between atoms: _502  and  _504
REMARK  207  A    between atoms: _504  and  _505
REMARK  208  A    between atoms: _504  and  _507
REMARK  209  A    between atoms: _507  and  _508
REMARK  210  A    between atoms: _514  and  _516
REMARK  211  A    between atoms: _516  and  _517
REMARK  212  A    between atoms: _516  and  _519
REMARK  213  A    between atoms: _519  and  _520
REMARK  214  A    between atoms: _522  and  _524
REMARK  215  A    between atoms: _524  and  _525
REMARK  216  A    between atoms: _524  and  _527
REMARK  217  A    between atoms: _527  and  _528
REMARK  218  A    between atoms: _530  and  _532
REMARK  219  A    between atoms: _532  and  _533
REMARK  220  A    between atoms: _532  and  _535
REMARK  221  A    between atoms: _535  and  _536
REMARK  222  A    between atoms: _536  and  _537
REMARK  223  A    between atoms: _537  and  _538
REMARK  224  A    between atoms: _547  and  _549
REMARK  225  A    between atoms: _549  and  _550
REMARK  226  A    between atoms: _553  and  _555
REMARK  227  A    between atoms: _555  and  _556
REMARK  228  A    between atoms: _555  and  _558
REMARK  229  A    between atoms: _558  and  _559
REMARK  230  A    between atoms: _562  and  _564
REMARK  231  A    between atoms: _564  and  _565
REMARK  232  A    between atoms: _564  and  _567
REMARK  233  A    between atoms: _567  and  _568
REMARK  234  A    between atoms: _578  and  _580
REMARK  235  A    between atoms: _580  and  _581
REMARK  236  A    between atoms: _580  and  _583
REMARK  237  A    between atoms: _583  and  _584
REMARK  238  A    between atoms: _584  and  _585
REMARK  239  A    between atoms: _590  and  _592
REMARK  240  A    between atoms: _592  and  _593
REMARK  241  A    between atoms: _592  and  _595
REMARK  242  A    between atoms: _595  and  _596
REMARK  243  A    between atoms: _602  and  _604
REMARK  244  A    between atoms: _604  and  _605
REMARK  245  A    between atoms: _604  and  _607
REMARK  246  A    between atoms: _607  and  _608
REMARK  247  A    between atoms: _608  and  _609
REMARK  248  A    between atoms: _609  and  _610
REMARK  249  A    between atoms: _619  and  _621
REMARK  250  A    between atoms: _621  and  _622
REMARK  251  A    between atoms: _621  and  _624
REMARK  252  A    between atoms: _624  and  _625
REMARK  253  A    between atoms: _627  and  _629
REMARK  254  A    between atoms: _629  and  _630
REMARK  255  A    between atoms: _629  and  _632
REMARK  256  A    between atoms: _632  and  _633
REMARK  257  A    between atoms: _633  and  _634
REMARK  258  A    between atoms: _636  and  _638
REMARK  259  A    between atoms: _638  and  _639
REMARK  260  A    between atoms: _638  and  _641
REMARK  261  A    between atoms: _641  and  _642
REMARK  262  A    between atoms: _645  and  _647
REMARK  263  A    between atoms: _647  and  _648
REMARK  264  A    between atoms: _647  and  _650
REMARK  265  A    between atoms: _650  and  _651
REMARK  266  A    between atoms: _651  and  _652
REMARK  267  A    between atoms: _652  and  _653
REMARK  268  A    between atoms: _653  and  _654
REMARK  269  A    between atoms: _658  and  _660
REMARK  270  A    between atoms: _660  and  _661
REMARK  271  A    between atoms: _660  and  _663
REMARK  272  A    between atoms: _663  and  _664
REMARK  273  A    between atoms: _670  and  _671
REMARK  274  A    between atoms: _676  and  _678
REMARK  275  A    between atoms: _678  and  _679
REMARK  276  A    between atoms: _678  and  _681
REMARK  277  A    between atoms: _681  and  _682
REMARK  278  A    between atoms: _685  and  _687
REMARK  279  A    between atoms: _687  and  _688
REMARK  280  A    between atoms: _687  and  _690
REMARK  281  A    between atoms: _690  and  _691
REMARK  282  A    between atoms: _691  and  _692
REMARK  283  A    between atoms: _694  and  _696
REMARK  284  A    between atoms: _696  and  _697
REMARK  285  A    between atoms: _696  and  _699
REMARK  286  A    between atoms: _699  and  _700
REMARK  287  A    between atoms: _703  and  _705
REMARK  288  A    between atoms: _705  and  _706
REMARK  289  A    between atoms: _705  and  _708
REMARK  290  A    between atoms: _708  and  _709
REMARK  291  A    between atoms: _715  and  _717
REMARK  292  A    between atoms: _717  and  _718
REMARK  293  A    between atoms: _717  and  _720
REMARK  294  A    between atoms: _720  and  _721
REMARK  295  A    between atoms: _726  and  _728
REMARK  296  A    between atoms: _728  and  _729
REMARK  297  A    between atoms: _728  and  _731
REMARK  298  A    between atoms: _731  and  _732
REMARK  299  A    between atoms: _737  and  _739
REMARK  300  A    between atoms: _739  and  _740
REMARK  301  A    between atoms: _739  and  _742
REMARK  302  A    between atoms: _742  and  _743
REMARK  303  A    between atoms: _743  and  _755
REMARK  304  A    between atoms: _744  and  _746
REMARK  305  A    between atoms: _746  and  _747
REMARK  306  A    between atoms: _749  and  _751
REMARK  307  A    between atoms: _751  and  _752
REMARK  308  A    between atoms: _751  and  _754
REMARK  309  A    between atoms: _754  and  _755
REMARK  310  A    between atoms: _756  and  _758
REMARK  311  A    between atoms: _758  and  _759
REMARK  312  A    between atoms: _758  and  _761
REMARK  313  A    between atoms: _761  and  _762
REMARK  314  A    between atoms: _767  and  _769
REMARK  315  A    between atoms: _769  and  _770
REMARK  316  A    between atoms: _769  and  _772
REMARK  317  A    between atoms: _772  and  _773
REMARK  318  A    between atoms: _778  and  _779
REMARK  319  A    between atoms: _781  and  _783
REMARK  320  A    between atoms: _783  and  _784
REMARK  321  A    between atoms: _783  and  _786
REMARK  322  A    between atoms: _786  and  _787
REMARK                            x       y       z     vdW  Elec       q    Type
REMARK                         _______ _______ _______ _____ _____    ______ ____
ROOT
ATOM      1  CG  TYR A   1      12.743   6.713  27.521  0.00  0.00    -0.020 A 
ATOM      2  CD2 TYR A   1      13.108   6.980  28.841  0.00  0.00    -0.001 A 
ATOM      3  CE2 TYR A   1      13.836   8.125  29.170  0.00  0.00    +0.036 A 
ATOM      4  CZ  TYR A   1      14.203   9.011  28.172  0.00  0.00    +0.134 A 
ATOM      5  CE1 TYR A   1      13.852   8.764  26.854  0.00  0.00    +0.036 A 
ATOM      6  CD1 TYR A   1      13.129   7.622  26.537  0.00  0.00    -0.001 A 
ENDROOT
BRANCH   4   7
ATOM      7  OH  TYR A   1      14.924  10.143  28.479  0.00  0.00    -0.506 OA
ATOM      8  HH  TYR A   1      15.097  10.657  27.651  0.00  0.00    +0.292 HD
ENDBRANCH   4   7
BRANCH   1   9
ATOM      9  CB  TYR A   1      11.944   5.476  27.160  0.00  0.00    +0.051 C 
BRANCH   9  10
ATOM     10  CA  TYR A   1      11.232   4.809  28.341  0.00  0.00    +0.137 C 
BRANCH  10  11
ATOM     11  N   TYR A   1      12.091   3.828  28.988  0.00  0.00    -0.239 NA
ATOM     12  H   TYR A   1      13.014   3.592  28.570  0.00  0.00    +0.142 HD
ENDBRANCH  10  11
BRANCH  10  13
ATOM     13  C   TYR A   1       9.955   4.137  27.860  0.00  0.00    +0.224 C 
ATOM     14  O   TYR A   1       8.902   4.769  27.783  0.00  0.00    -0.287 OA
ENDBRANCH  10  13
ENDBRANCH   9  10
ENDBRANCH   1   9
TORSDOF 5
REMARK  Name = ../refined-set-2016/1hn4/1hn4_pocket.pdb
REMARK  322 active torsions:
REMARK  status: ('A' for Active; 'I' for Inactive)
REMARK    1  A    between atoms: _1  and  _5
REMARK    2  A    between atoms: _5  and  _6
REMARK    3  A    between atoms: _8  and  _10
REMARK    4  A    between atoms: _10  and  _11
REMARK    5  A    between atoms: _10  and  _13
REMARK    6  A    between atoms: _13  and  _14
REMARK    7  A    between atoms: _17  and  _19
REMARK    8  A    between atoms: _19  and  _20
REMARK    9  A    between atoms: _19  and  _22
REMARK   10  A    between atoms: _22  and  _23
REMARK   11  A    between atoms: _25  and  _27
REMARK   12  A    between atoms: _27  and  _28
REMARK   13  A    between atoms: _27  and  _30
REMARK   14  A    between atoms: _30  and  _31
REMARK   15  A    between atoms: _33  and  _35
REMARK   16  A    between atoms: _35  and  _36
REMARK   17  A    between atoms: _35  and  _38
REMARK   18  A    between atoms: _38  and  _39
REMARK   19  A    between atoms: _39  and  _40
REMARK   20  A    between atoms: _40  and  _41
REMARK   21  A    between atoms: _50  and  _52
REMARK   22  A    between atoms: _52  and  _53
REMARK   23  A    between atoms: _56  and  _58
REMARK   24  A    between atoms: _58  and  _59
REMARK   25  A    between atoms: _58  and  _61
REMARK   26  A    between atoms: _61  and  _62
REMARK   27  A    between atoms: _65  and  _67
REMARK   28  A    between atoms: _67  and  _68
REMARK   29  A    between atoms: _67  and  _70
REMARK   30  A    between atoms: _70  and  _71
REMARK   31  A    between atoms: _81  and  _83
REMARK   32  A    between atoms: _83  and  _84
REMARK   33  A    between atoms: _83  and  _86
REMARK   34  A    between atoms: _86  and  _87
REMARK   35  A    between atoms: _87  and  _88
REMARK   36  A    between atoms: _93  and  _95
REMARK   37  A    between atoms: _95  and  _96
REMARK   38  A    between atoms: _95  and  _98
REMARK   39  A    between atoms: _98  and  _99
REMARK   40  A    between atoms: _105  and  _107
REMARK   41  A    between atoms: _107  and  _108
REMARK   42  A    between atoms: _107  and  _110
REMARK   43  A    between atoms: _110  and  _111
REMARK   44  A    between atoms: _111  and  _112
REMARK   45  A    between atoms: _112  and  _113
REMARK   46  A    between atoms: _122  and  _124
REMARK   47  A    between atoms: _124  and  _125
REMARK   48  A    between atoms: _124  and  _127
REMARK   49  A    between atoms: _127  and  _128
REMARK   50  A    between atoms: _130  and  _132
REMARK   51  A    between atoms: _132  and  _133
REMARK   52  A    between atoms: _132  and  _135
REMARK   53  A    between atoms: _135  and  _136
REMARK   54  A    between atoms: _136  and  _137
REMARK   55  A    between atoms: _139  and  _141
REMARK   56  A    between atoms: _141  and  _142
REMARK   57  A    between atoms: _141  and  _144
REMARK   58  A    between atoms: _144  and  _145
REMARK   59  A    between atoms: _148  and  _150
REMARK   60  A    between atoms: _150  and  _151
REMARK   61  A    between atoms: _150  and  _153
REMARK   62  A    between atoms: _153  and  _154
REMARK   63  A    between atoms: _154  and  _155
REMARK   64  A    between atoms: _155  and  _156
REMARK   65  A    between atoms: _156  and  _157
REMARK   66  A    between atoms: _161  and  _163
REMARK   67  A    between atoms: _163  and  _164
REMARK   68  A    between atoms: _163  and  _166
REMARK   69  A    between atoms: _166  and  _167
REMARK   70  A    between atoms: _173  and  _174
REMARK   71  A    between atoms: _179  and  _181
REMARK   72  A    between atoms: _181  and  _182
REMARK   73  A    between atoms: _181  and  _184
REMARK   74  A    between atoms: _184  and  _185
REMARK   75  A    between atoms: _188  and  _190
REMARK   76  A    between atoms: _190  and  _191
REMARK   77  A    between atoms: _190  and  _193
REMARK   78  A    between atoms: _193  and  _194
REMARK   79  A    between atoms: _194  and  _195
REMARK   80  A    between atoms: _197  and  _199
REMARK   81  A    between atoms: _199  and  _200
REMARK   82  A    between atoms: _199  and  _202
REMARK   83  A    between atoms: _202  and  _203
REMARK   84  A    between atoms: _206  and  _208
REMARK   85  A    between atoms: _208  and  _209
REMARK   86  A    between atoms: _208  and  _211
REMARK   87  A    between atoms: _211  and  _212
REMARK   88  A    between atoms: _218  and  _220
REMARK   89  A    between atoms: _220  and  _221
REMARK   90  A    between atoms: _220  and  _223
REMARK   91  A    between atoms: _223  and  _224
REMARK   92  A    between atoms: _229  and  _231
REMARK   93  A    between atoms: _231  and  _232
REMARK   94  A    between atoms: _231  and  _234
REMARK   95  A    between atoms: _234  and  _235
REMARK   96  A    between atoms: _240  and  _242
REMARK   97  A    between atoms: _242  and  _243
REMARK   98  A    between atoms: _242  and  _245
REMARK   99  A    between atoms: _245  and  _246
REMARK  100  A    between atoms: _251  and  _252
REMARK  101  A    between atoms: _254  and  _256
REMARK  102  A    between atoms: _256  and  _257
REMARK  103  A    between atoms: _256  and  _259
REMARK  104  A    between atoms: _261  and  _263
REMARK  105  A    between atoms: _263  and  _264
REMARK  106  A    between atoms: _263  and  _266
REMARK  107  A    between atoms: _266  and  _267
REMARK  108  A    between atoms: _272  and  _273
REMARK  109  A    between atoms: _277  and  _280
REMARK  110  A    between atoms: _280  and  _281
REMARK  111  A    between atoms: _281  and  _354
REMARK  112  A    between atoms: _285  and  _287
REMARK  113  A    between atoms: _287  and  _289
REMARK  114  A    between atoms: _289  and  _290
REMARK  115  A    between atoms: _289  and  _292
REMARK  116  A    between atoms: _292  and  _293
REMARK  117  A    between atoms: _296  and  _298
REMARK  118  A    between atoms: _298  and  _299
REMARK  119  A    between atoms: _301  and  _303
REMARK  120  A    between atoms: _303  and  _304
REMARK  121  A    between atoms: _306  and  _308
REMARK  122  A    between atoms: _308  and  _309
REMARK  123  A    between atoms: _308  and  _311
REMARK  124  A    between atoms: _311  and  _312
REMARK  125  A    between atoms: _315  and  _317
REMARK  126  A    between atoms: _317  and  _318
REMARK  127  A    between atoms: _317  and  _320
REMARK  128  A    between atoms: _320  and  _321
REMARK  129  A    between atoms: _324  and  _326
REMARK  130  A    between atoms: _326  and  _327
REMARK  131  A    between atoms: _326  and  _329
REMARK  132  A    between atoms: _329  and  _330
REMARK  133  A    between atoms: _330  and  _331
REMARK  134  A    between atoms: _331  and  _332
REMARK  135  A    between atoms: _341  and  _343
REMARK  136  A    between atoms: _343  and  _344
REMARK  137  A    between atoms: _343  and  _346
REMARK  138  A    between atoms: _348  and  _350
REMARK  139  A    between atoms: _350  and  _351
REMARK  140  A    between atoms: _350  and  _353
REMARK  141  A    between atoms: _353  and  _354
REMARK  142  A    between atoms: _355  and  _357
REMARK  143  A    between atoms: _357  and  _358
REMARK  144  A    between atoms: _357  and  _360
REMARK  145  A    between atoms: _360  and  _361
REMARK  146  A    between atoms: _361  and  _362
REMARK  147  A    between atoms: _365  and  _367
REMARK  148  A    between atoms: _367  and  _368
REMARK  149  A    between atoms: _367  and  _370
REMARK  150  A    between atoms: _370  and  _371
REMARK  151  A    between atoms: _374  and  _376
REMARK  152  A    between atoms: _376  and  _377
REMARK  153  A    between atoms: _376  and  _379
REMARK  154  A    between atoms: _379  and  _380
REMARK  155  A    between atoms: _385  and  _387
REMARK  156  A    between atoms: _387  and  _388
REMARK  157  A    between atoms: _387  and  _390
REMARK  158  A    between atoms: _390  and  _391
REMARK  159  A    between atoms: _394  and  _396
REMARK  160  A    between atoms: _396  and  _397
REMARK  161  A    between atoms: _396  and  _399
REMARK  162  A    between atoms: _399  and  _400
REMARK  163  A    between atoms: _405  and  _407
REMARK  164  A    between atoms: _407  and  _408
REMARK  165  A    between atoms: _407  and  _410
REMARK  166  A    between atoms: _410  and  _411
REMARK  167  A    between atoms: _411  and  _480
REMARK  168  A    between atoms: _412  and  _414
REMARK  169  A    between atoms: _414  and  _415
REMARK  170  A    between atoms: _414  and  _417
REMARK  171  A    between atoms: _417  and  _418
REMARK  172  A    between atoms: _423  and  _424
REMARK  173  A    between atoms: _426  and  _428
REMARK  174  A    between atoms: _428  and  _429
REMARK  175  A    between atoms: _428  and  _431
REMARK  176  A    between atoms: _431  and  _432
REMARK  177  A    between atoms: _432  and  _433
REMARK  178  A    between atoms: _433  and  _434
REMARK  179  A    between atoms: _443  and  _445
REMARK  180  A    between atoms: _445  and  _446
REMARK  181  A    between atoms: _445  and  _448
REMARK  182  A    between atoms: _448  and  _449
REMARK  183  A    between atoms: _452  and  _454
REMARK  184  A    between atoms: _454  and  _455
REMARK  185  A    between atoms: _454  and  _457
REMARK  186  A    between atoms: _457  and  _458
REMARK  187  A    between atoms: _458  and  _459
REMARK  188  A    between atoms: _459  and  _460
REMARK  189  A    between atoms: _460  and  _461
REMARK  190  A    between atoms: _465  and  _467
REMARK  191  A    between atoms: _467  and  _468
REMARK  192  A    between atoms: _467  and  _470
REMARK  193  A    between atoms: _470  and  _471
REMARK  194  A    between atoms: _474  and  _476
REMARK  195  A    between atoms: _476  and  _477
REMARK  196  A    between atoms: _476  and  _479
REMARK  197  A    between atoms: _479  and  _480
REMARK  198  A    between atoms: _481  and  _483
REMARK  199  A    between atoms: _483  and  _484
REMARK  200  A    between atoms: _483  and  _486
REMARK  201  A    between atoms: _486  and  _487
REMARK  202  A    between atoms: _490  and  _492
REMARK  203  A    between atoms: _492  and  _493
REMARK  204  A    between atoms: _496  and  _498
REMARK  205  A    between atoms: _498  and  _499
REMARK  206  A    between atoms: _502  and  _504
REMARK  207  A    between atoms: _504  and  _505
REMARK  208  A    between atoms: _504  and  _507
REMARK  209  A    between atoms: _507  and  _508
REMARK  210  A    between atoms: _514  and  _516
REMARK  211  A    between atoms: _516  and  _517
REMARK  212  A    between atoms: _516  and  _519
REMARK  213  A    between atoms: _519  and  _520
REMARK  214  A    between atoms: _522  and  _524
REMARK  215  A    between atoms: _524  and  _525
REMARK  216  A    between atoms: _524  and  _527
REMARK  217  A    between atoms: _527  and  _528
REMARK  218  A    between atoms: _530  and  _532
REMARK  219  A    between atoms: _532  and  _533
REMARK  220  A    between atoms: _532  and  _535
REMARK  221  A    between atoms: _535  and  _536
REMARK  222  A    between atoms: _536  and  _537
REMARK  223  A    between atoms: _537  and  _538
REMARK  224  A    between atoms: _547  and  _549
REMARK  225  A    between atoms: _549  and  _550
REMARK  226  A    between atoms: _553  and  _555
REMARK  227  A    between atoms: _555  and  _556
REMARK  228  A    between atoms: _555  and  _558
REMARK  229  A    between atoms: _558  and  _559
REMARK  230  A    between atoms: _562  and  _564
REMARK  231  A    between atoms: _564  and  _565
REMARK  232  A    between atoms: _564  and  _567
REMARK  233  A    between atoms: _567  and  _568
REMARK  234  A    between atoms: _578  and  _580
REMARK  235  A    between atoms: _580  and  _581
REMARK  236  A    between atoms: _580  and  _583
REMARK  237  A    between atoms: _583  and  _584
REMARK  238  A    between atoms: _584  and  _585
REMARK  239  A    between atoms: _590  and  _592
REMARK  240  A    between atoms: _592  and  _593
REMARK  241  A    between atoms: _592  and  _595
REMARK  242  A    between atoms: _595  and  _596
REMARK  243  A    between atoms: _602  and  _604
REMARK  244  A    between atoms: _604  and  _605
REMARK  245  A    between atoms: _604  and  _607
REMARK  246  A    between atoms: _607  and  _608
REMARK  247  A    between atoms: _608  and  _609
REMARK  248  A    between atoms: _609  and  _610
REMARK  249  A    between atoms: _619  and  _621
REMARK  250  A    between atoms: _621  and  _622
REMARK  251  A    between atoms: _621  and  _624
REMARK  252  A    between atoms: _624  and  _625
REMARK  253  A    between atoms: _627  and  _629
REMARK  254  A    between atoms: _629  and  _630
REMARK  255  A    between atoms: _629  and  _632
REMARK  256  A    between atoms: _632  and  _633
REMARK  257  A    between atoms: _633  and  _634
REMARK  258  A    between atoms: _636  and  _638
REMARK  259  A    between atoms: _638  and  _639
REMARK  260  A    between atoms: _638  and  _641
REMARK  261  A    between atoms: _641  and  _642
REMARK  262  A    between atoms: _645  and  _647
REMARK  263  A    between atoms: _647  and  _648
REMARK  264  A    between atoms: _647  and  _650
REMARK  265  A    between atoms: _650  and  _651
REMARK  266  A    between atoms: _651  and  _652
REMARK  267  A    between atoms: _652  and  _653
REMARK  268  A    between atoms: _653  and  _654
REMARK  269  A    between atoms: _658  and  _660
REMARK  270  A    between atoms: _660  and  _661
REMARK  271  A    between atoms: _660  and  _663
REMARK  272  A    between atoms: _663  and  _664
REMARK  273  A    between atoms: _670  and  _671
REMARK  274  A    between atoms: _676  and  _678
REMARK  275  A    between atoms: _678  and  _679
REMARK  276  A    between atoms: _678  and  _681
REMARK  277  A    between atoms: _681  and  _682
REMARK  278  A    between atoms: _685  and  _687
REMARK  279  A    between atoms: _687  and  _688
REMARK  280  A    between atoms: _687  and  _690
REMARK  281  A    between atoms: _690  and  _691
REMARK  282  A    between atoms: _691  and  _692
REMARK  283  A    between atoms: _694  and  _696
REMARK  284  A    between atoms: _696  and  _697
REMARK  285  A    between atoms: _696  and  _699
REMARK  286  A    between atoms: _699  and  _700
REMARK  287  A    between atoms: _703  and  _705
REMARK  288  A    between atoms: _705  and  _706
REMARK  289  A    between atoms: _705  and  _708
REMARK  290  A    between atoms: _708  and  _709
REMARK  291  A    between atoms: _715  and  _717
REMARK  292  A    between atoms: _717  and  _718
REMARK  293  A    between atoms: _717  and  _720
REMARK  294  A    between atoms: _720  and  _721
REMARK  295  A    between atoms: _726  and  _728
REMARK  296  A    between atoms: _728  and  _729
REMARK  297  A    between atoms: _728  and  _731
REMARK  298  A    between atoms: _731  and  _732
REMARK  299  A    between atoms: _737  and  _739
REMARK  300  A    between atoms: _739  and  _740
REMARK  301  A    between atoms: _739  and  _742
REMARK  302  A    between atoms: _742  and  _743
REMARK  303  A    between atoms: _743  and  _755
REMARK  304  A    between atoms: _744  and  _746
REMARK  305  A    between atoms: _746  and  _747
REMARK  306  A    between atoms: _749  and  _751
REMARK  307  A    between atoms: _751  and  _752
REMARK  308  A    between atoms: _751  and  _754
REMARK  309  A    between atoms: _754  and  _755
REMARK  310  A    between atoms: _756  and  _758
REMARK  311  A    between atoms: _758  and  _759
REMARK  312  A    between atoms: _758  and  _761
REMARK  313  A    between atoms: _761  and  _762
REMARK  314  A    between atoms: _767  and  _769
REMARK  315  A    between atoms: _769  and  _770
REMARK  316  A    between atoms: _769  and  _772
REMARK  317  A    between atoms: _772  and  _773
REMARK  318  A    between atoms: _778  and  _779
REMARK  319  A    between atoms: _781  and  _783
REMARK  320  A    between atoms: _783  and  _784
REMARK  321  A    between atoms: _783  and  _786
REMARK  322  A    between atoms: _786  and  _787
REMARK                            x       y       z     vdW  Elec       q    Type
REMARK                         _______ _______ _______ _____ _____    ______ ____
ROOT
ATOM      1  CB  PHE A   1      26.675   6.197  30.496  0.00  0.00    +0.051 C 
ENDROOT
BRANCH   1   2
ATOM      2  CG  PHE A   1      25.501   5.978  29.578  0.00  0.00    -0.020 A 
ATOM      3  CD2 PHE A   1      24.962   4.715  29.366  0.00  0.00    -0.004 A 
ATOM      4  CE2 PHE A   1      23.886   4.536  28.497  0.00  0.00    -0.000 A 
ATOM      5  CZ  PHE A   1      23.343   5.631  27.831  0.00  0.00    -0.000 A 
ATOM      6  CE1 PHE A   1      23.874   6.895  28.039  0.00  0.00    -0.000 A 
ATOM      7  CD1 PHE A   1      24.944   7.063  28.907  0.00  0.00    -0.004 A 
ENDBRANCH   1   2
BRANCH   1   8
ATOM      8  CA  PHE A   1      27.203   4.929  31.187  0.00  0.00    +0.137 C 
BRANCH   8   9
ATOM      9  N   PHE A   1      26.267   4.467  32.210  0.00  0.00    -0.239 NA
ATOM     10  H   PHE A   1      25.382   4.993  32.359  0.00  0.00    +0.142 HD
ENDBRANCH   8   9
BRANCH   8  11
ATOM     11  C   PHE A   1      28.570   5.268  31.785  0.00  0.00    +0.224 C 
ATOM     12  O   PHE A   1      29.611   4.964  31.201  0.00  0.00    -0.287 OA
ENDBRANCH   8  11
ENDBRANCH   1   8
TORSDOF 4
REMARK  Name = ../refined-set-2016/1hn4/1hn4_pocket.pdb
REMARK  322 active torsions:
REMARK  status: ('A' for Active; 'I' for Inactive)
REMARK    1  A    between atoms: _1  and  _5
REMARK    2  A    between atoms: _5  and  _6
REMARK    3  A    between atoms: _8  and  _10
REMARK    4  A    between atoms: _10  and  _11
REMARK    5  A    between atoms: _10  and  _13
REMARK    6  A    between atoms: _13  and  _14
REMARK    7  A    between atoms: _17  and  _19
REMARK    8  A    between atoms: _19  and  _20
REMARK    9  A    between atoms: _19  and  _22
REMARK   10  A    between atoms: _22  and  _23
REMARK   11  A    between atoms: _25  and  _27
REMARK   12  A    between atoms: _27  and  _28
REMARK   13  A    between atoms: _27  and  _30
REMARK   14  A    between atoms: _30  and  _31
REMARK   15  A    between atoms: _33  and  _35
REMARK   16  A    between atoms: _35  and  _36
REMARK   17  A    between atoms: _35  and  _38
REMARK   18  A    between atoms: _38  and  _39
REMARK   19  A    between atoms: _39  and  _40
REMARK   20  A    between atoms: _40  and  _41
REMARK   21  A    between atoms: _50  and  _52
REMARK   22  A    between atoms: _52  and  _53
REMARK   23  A    between atoms: _56  and  _58
REMARK   24  A    between atoms: _58  and  _59
REMARK   25  A    between atoms: _58  and  _61
REMARK   26  A    between atoms: _61  and  _62
REMARK   27  A    between atoms: _65  and  _67
REMARK   28  A    between atoms: _67  and  _68
REMARK   29  A    between atoms: _67  and  _70
REMARK   30  A    between atoms: _70  and  _71
REMARK   31  A    between atoms: _81  and  _83
REMARK   32  A    between atoms: _83  and  _84
REMARK   33  A    between atoms: _83  and  _86
REMARK   34  A    between atoms: _86  and  _87
REMARK   35  A    between atoms: _87  and  _88
REMARK   36  A    between atoms: _93  and  _95
REMARK   37  A    between atoms: _95  and  _96
REMARK   38  A    between atoms: _95  and  _98
REMARK   39  A    between atoms: _98  and  _99
REMARK   40  A    between atoms: _105  and  _107
REMARK   41  A    between atoms: _107  and  _108
REMARK   42  A    between atoms: _107  and  _110
REMARK   43  A    between atoms: _110  and  _111
REMARK   44  A    between atoms: _111  and  _112
REMARK   45  A    between atoms: _112  and  _113
REMARK   46  A    between atoms: _122  and  _124
REMARK   47  A    between atoms: _124  and  _125
REMARK   48  A    between atoms: _124  and  _127
REMARK   49  A    between atoms: _127  and  _128
REMARK   50  A    between atoms: _130  and  _132
REMARK   51  A    between atoms: _132  and  _133
REMARK   52  A    between atoms: _132  and  _135
REMARK   53  A    between atoms: _135  and  _136
REMARK   54  A    between atoms: _136  and  _137
REMARK   55  A    between atoms: _139  and  _141
REMARK   56  A    between atoms: _141  and  _142
REMARK   57  A    between atoms: _141  and  _144
REMARK   58  A    between atoms: _144  and  _145
REMARK   59  A    between atoms: _148  and  _150
REMARK   60  A    between atoms: _150  and  _151
REMARK   61  A    between atoms: _150  and  _153
REMARK   62  A    between atoms: _153  and  _154
REMARK   63  A    between atoms: _154  and  _155
REMARK   64  A    between atoms: _155  and  _156
REMARK   65  A    between atoms: _156  and  _157
REMARK   66  A    between atoms: _161  and  _163
REMARK   67  A    between atoms: _163  and  _164
REMARK   68  A    between atoms: _163  and  _166
REMARK   69  A    between atoms: _166  and  _167
REMARK   70  A    between atoms: _173  and  _174
REMARK   71  A    between atoms: _179  and  _181
REMARK   72  A    between atoms: _181  and  _182
REMARK   73  A    between atoms: _181  and  _184
REMARK   74  A    between atoms: _184  and  _185
REMARK   75  A    between atoms: _188  and  _190
REMARK   76  A    between atoms: _190  and  _191
REMARK   77  A    between atoms: _190  and  _193
REMARK   78  A    between atoms: _193  and  _194
REMARK   79  A    between atoms: _194  and  _195
REMARK   80  A    between atoms: _197  and  _199
REMARK   81  A    between atoms: _199  and  _200
REMARK   82  A    between atoms: _199  and  _202
REMARK   83  A    between atoms: _202  and  _203
REMARK   84  A    between atoms: _206  and  _208
REMARK   85  A    between atoms: _208  and  _209
REMARK   86  A    between atoms: _208  and  _211
REMARK   87  A    between atoms: _211  and  _212
REMARK   88  A    between atoms: _218  and  _220
REMARK   89  A    between atoms: _220  and  _221
REMARK   90  A    between atoms: _220  and  _223
REMARK   91  A    between atoms: _223  and  _224
REMARK   92  A    between atoms: _229  and  _231
REMARK   93  A    between atoms: _231  and  _232
REMARK   94  A    between atoms: _231  and  _234
REMARK   95  A    between atoms: _234  and  _235
REMARK   96  A    between atoms: _240  and  _242
REMARK   97  A    between atoms: _242  and  _243
REMARK   98  A    between atoms: _242  and  _245
REMARK   99  A    between atoms: _245  and  _246
REMARK  100  A    between atoms: _251  and  _252
REMARK  101  A    between atoms: _254  and  _256
REMARK  102  A    between atoms: _256  and  _257
REMARK  103  A    between atoms: _256  and  _259
REMARK  104  A    between atoms: _261  and  _263
REMARK  105  A    between atoms: _263  and  _264
REMARK  106  A    between atoms: _263  and  _266
REMARK  107  A    between atoms: _266  and  _267
REMARK  108  A    between atoms: _272  and  _273
REMARK  109  A    between atoms: _277  and  _280
REMARK  110  A    between atoms: _280  and  _281
REMARK  111  A    between atoms: _281  and  _354
REMARK  112  A    between atoms: _285  and  _287
REMARK  113  A    between atoms: _287  and  _289
REMARK  114  A    between atoms: _289  and  _290
REMARK  115  A    between atoms: _289  and  _292
REMARK  116  A    between atoms: _292  and  _293
REMARK  117  A    between atoms: _296  and  _298
REMARK  118  A    between atoms: _298  and  _299
REMARK  119  A    between atoms: _301  and  _303
REMARK  120  A    between atoms: _303  and  _304
REMARK  121  A    between atoms: _306  and  _308
REMARK  122  A    between atoms: _308  and  _309
REMARK  123  A    between atoms: _308  and  _311
REMARK  124  A    between atoms: _311  and  _312
REMARK  125  A    between atoms: _315  and  _317
REMARK  126  A    between atoms: _317  and  _318
REMARK  127  A    between atoms: _317  and  _320
REMARK  128  A    between atoms: _320  and  _321
REMARK  129  A    between atoms: _324  and  _326
REMARK  130  A    between atoms: _326  and  _327
REMARK  131  A    between atoms: _326  and  _329
REMARK  132  A    between atoms: _329  and  _330
REMARK  133  A    between atoms: _330  and  _331
REMARK  134  A    between atoms: _331  and  _332
REMARK  135  A    between atoms: _341  and  _343
REMARK  136  A    between atoms: _343  and  _344
REMARK  137  A    between atoms: _343  and  _346
REMARK  138  A    between atoms: _348  and  _350
REMARK  139  A    between atoms: _350  and  _351
REMARK  140  A    between atoms: _350  and  _353
REMARK  141  A    between atoms: _353  and  _354
REMARK  142  A    between atoms: _355  and  _357
REMARK  143  A    between atoms: _357  and  _358
REMARK  144  A    between atoms: _357  and  _360
REMARK  145  A    between atoms: _360  and  _361
REMARK  146  A    between atoms: _361  and  _362
REMARK  147  A    between atoms: _365  and  _367
REMARK  148  A    between atoms: _367  and  _368
REMARK  149  A    between atoms: _367  and  _370
REMARK  150  A    between atoms: _370  and  _371
REMARK  151  A    between atoms: _374  and  _376
REMARK  152  A    between atoms: _376  and  _377
REMARK  153  A    between atoms: _376  and  _379
REMARK  154  A    between atoms: _379  and  _380
REMARK  155  A    between atoms: _385  and  _387
REMARK  156  A    between atoms: _387  and  _388
REMARK  157  A    between atoms: _387  and  _390
REMARK  158  A    between atoms: _390  and  _391
REMARK  159  A    between atoms: _394  and  _396
REMARK  160  A    between atoms: _396  and  _397
REMARK  161  A    between atoms: _396  and  _399
REMARK  162  A    between atoms: _399  and  _400
REMARK  163  A    between atoms: _405  and  _407
REMARK  164  A    between atoms: _407  and  _408
REMARK  165  A    between atoms: _407  and  _410
REMARK  166  A    between atoms: _410  and  _411
REMARK  167  A    between atoms: _411  and  _480
REMARK  168  A    between atoms: _412  and  _414
REMARK  169  A    between atoms: _414  and  _415
REMARK  170  A    between atoms: _414  and  _417
REMARK  171  A    between atoms: _417  and  _418
REMARK  172  A    between atoms: _423  and  _424
REMARK  173  A    between atoms: _426  and  _428
REMARK  174  A    between atoms: _428  and  _429
REMARK  175  A    between atoms: _428  and  _431
REMARK  176  A    between atoms: _431  and  _432
REMARK  177  A    between atoms: _432  and  _433
REMARK  178  A    between atoms: _433  and  _434
REMARK  179  A    between atoms: _443  and  _445
REMARK  180  A    between atoms: _445  and  _446
REMARK  181  A    between atoms: _445  and  _448
REMARK  182  A    between atoms: _448  and  _449
REMARK  183  A    between atoms: _452  and  _454
REMARK  184  A    between atoms: _454  and  _455
REMARK  185  A    between atoms: _454  and  _457
REMARK  186  A    between atoms: _457  and  _458
REMARK  187  A    between atoms: _458  and  _459
REMARK  188  A    between atoms: _459  and  _460
REMARK  189  A    between atoms: _460  and  _461
REMARK  190  A    between atoms: _465  and  _467
REMARK  191  A    between atoms: _467  and  _468
REMARK  192  A    between atoms: _467  and  _470
REMARK  193  A    between atoms: _470  and  _471
REMARK  194  A    between atoms: _474  and  _476
REMARK  195  A    between atoms: _476  and  _477
REMARK  196  A    between atoms: _476  and  _479
REMARK  197  A    between atoms: _479  and  _480
REMARK  198  A    between atoms: _481  and  _483
REMARK  199  A    between atoms: _483  and  _484
REMARK  200  A    between atoms: _483  and  _486
REMARK  201  A    between atoms: _486  and  _487
REMARK  202  A    between atoms: _490  and  _492
REMARK  203  A    between atoms: _492  and  _493
REMARK  204  A    between atoms: _496  and  _498
REMARK  205  A    between atoms: _498  and  _499
REMARK  206  A    between atoms: _502  and  _504
REMARK  207  A    between atoms: _504  and  _505
REMARK  208  A    between atoms: _504  and  _507
REMARK  209  A    between atoms: _507  and  _508
REMARK  210  A    between atoms: _514  and  _516
REMARK  211  A    between atoms: _516  and  _517
REMARK  212  A    between atoms: _516  and  _519
REMARK  213  A    between atoms: _519  and  _520
REMARK  214  A    between atoms: _522  and  _524
REMARK  215  A    between atoms: _524  and  _525
REMARK  216  A    between atoms: _524  and  _527
REMARK  217  A    between atoms: _527  and  _528
REMARK  218  A    between atoms: _530  and  _532
REMARK  219  A    between atoms: _532  and  _533
REMARK  220  A    between atoms: _532  and  _535
REMARK  221  A    between atoms: _535  and  _536
REMARK  222  A    between atoms: _536  and  _537
REMARK  223  A    between atoms: _537  and  _538
REMARK  224  A    between atoms: _547  and  _549
REMARK  225  A    between atoms: _549  and  _550
REMARK  226  A    between atoms: _553  and  _555
REMARK  227  A    between atoms: _555  and  _556
REMARK  228  A    between atoms: _555  and  _558
REMARK  229  A    between atoms: _558  and  _559
REMARK  230  A    between atoms: _562  and  _564
REMARK  231  A    between atoms: _564  and  _565
REMARK  232  A    between atoms: _564  and  _567
REMARK  233  A    between atoms: _567  and  _568
REMARK  234  A    between atoms: _578  and  _580
REMARK  235  A    between atoms: _580  and  _581
REMARK  236  A    between atoms: _580  and  _583
REMARK  237  A    between atoms: _583  and  _584
REMARK  238  A    between atoms: _584  and  _585
REMARK  239  A    between atoms: _590  and  _592
REMARK  240  A    between atoms: _592  and  _593
REMARK  241  A    between atoms: _592  and  _595
REMARK  242  A    between atoms: _595  and  _596
REMARK  243  A    between atoms: _602  and  _604
REMARK  244  A    between atoms: _604  and  _605
REMARK  245  A    between atoms: _604  and  _607
REMARK  246  A    between atoms: _607  and  _608
REMARK  247  A    between atoms: _608  and  _609
REMARK  248  A    between atoms: _609  and  _610
REMARK  249  A    between atoms: _619  and  _621
REMARK  250  A    between atoms: _621  and  _622
REMARK  251  A    between atoms: _621  and  _624
REMARK  252  A    between atoms: _624  and  _625
REMARK  253  A    between atoms: _627  and  _629
REMARK  254  A    between atoms: _629  and  _630
REMARK  255  A    between atoms: _629  and  _632
REMARK  256  A    between atoms: _632  and  _633
REMARK  257  A    between atoms: _633  and  _634
REMARK  258  A    between atoms: _636  and  _638
REMARK  259  A    between atoms: _638  and  _639
REMARK  260  A    between atoms: _638  and  _641
REMARK  261  A    between atoms: _641  and  _642
REMARK  262  A    between atoms: _645  and  _647
REMARK  263  A    between atoms: _647  and  _648
REMARK  264  A    between atoms: _647  and  _650
REMARK  265  A    between atoms: _650  and  _651
REMARK  266  A    between atoms: _651  and  _652
REMARK  267  A    between atoms: _652  and  _653
REMARK  268  A    between atoms: _653  and  _654
REMARK  269  A    between atoms: _658  and  _660
REMARK  270  A    between atoms: _660  and  _661
REMARK  271  A    between atoms: _660  and  _663
REMARK  272  A    between atoms: _663  and  _664
REMARK  273  A    between atoms: _670  and  _671
REMARK  274  A    between atoms: _676  and  _678
REMARK  275  A    between atoms: _678  and  _679
REMARK  276  A    between atoms: _678  and  _681
REMARK  277  A    between atoms: _681  and  _682
REMARK  278  A    between atoms: _685  and  _687
REMARK  279  A    between atoms: _687  and  _688
REMARK  280  A    between atoms: _687  and  _690
REMARK  281  A    between atoms: _690  and  _691
REMARK  282  A    between atoms: _691  and  _692
REMARK  283  A    between atoms: _694  and  _696
REMARK  284  A    between atoms: _696  and  _697
REMARK  285  A    between atoms: _696  and  _699
REMARK  286  A    between atoms: _699  and  _700
REMARK  287  A    between atoms: _703  and  _705
REMARK  288  A    between atoms: _705  and  _706
REMARK  289  A    between atoms: _705  and  _708
REMARK  290  A    between atoms: _708  and  _709
REMARK  291  A    between atoms: _715  and  _717
REMARK  292  A    between atoms: _717  and  _718
REMARK  293  A    between atoms: _717  and  _720
REMARK  294  A    between atoms: _720  and  _721
REMARK  295  A    between atoms: _726  and  _728
REMARK  296  A    between atoms: _728  and  _729
REMARK  297  A    between atoms: _728  and  _731
REMARK  298  A    between atoms: _731  and  _732
REMARK  299  A    between atoms: _737  and  _739
REMARK  300  A    between atoms: _739  and  _740
REMARK  301  A    between atoms: _739  and  _742
REMARK  302  A    between atoms: _742  and  _743
REMARK  303  A    between atoms: _743  and  _755
REMARK  304  A    between atoms: _744  and  _746
REMARK  305  A    between atoms: _746  and  _747
REMARK  306  A    between atoms: _749  and  _751
REMARK  307  A    between atoms: _751  and  _752
REMARK  308  A    between atoms: _751  and  _754
REMARK  309  A    between atoms: _754  and  _755
REMARK  310  A    between atoms: _756  and  _758
REMARK  311  A    between atoms: _758  and  _759
REMARK  312  A    between atoms: _758  and  _761
REMARK  313  A    between atoms: _761  and  _762
REMARK  314  A    between atoms: _767  and  _769
REMARK  315  A    between atoms: _769  and  _770
REMARK  316  A    between atoms: _769  and  _772
REMARK  317  A    between atoms: _772  and  _773
REMARK  318  A    between atoms: _778  and  _779
REMARK  319  A    between atoms: _781  and  _783
REMARK  320  A    between atoms: _783  and  _784
REMARK  321  A    between atoms: _783  and  _786
REMARK  322  A    between atoms: _786  and  _787
REMARK                            x       y       z     vdW  Elec       q    Type
REMARK                         _______ _______ _______ _____ _____    ______ ____
ROOT
ATOM      1  O   HOH     1      19.129  20.805   2.497  0.00  0.00    +0.000 OA
ENDROOT
TORSDOF 0
REMARK  Name = ../refined-set-2016/1hn4/1hn4_pocket.pdb
REMARK  322 active torsions:
REMARK  status: ('A' for Active; 'I' for Inactive)
REMARK    1  A    between atoms: _1  and  _5
REMARK    2  A    between atoms: _5  and  _6
REMARK    3  A    between atoms: _8  and  _10
REMARK    4  A    between atoms: _10  and  _11
REMARK    5  A    between atoms: _10  and  _13
REMARK    6  A    between atoms: _13  and  _14
REMARK    7  A    between atoms: _17  and  _19
REMARK    8  A    between atoms: _19  and  _20
REMARK    9  A    between atoms: _19  and  _22
REMARK   10  A    between atoms: _22  and  _23
REMARK   11  A    between atoms: _25  and  _27
REMARK   12  A    between atoms: _27  and  _28
REMARK   13  A    between atoms: _27  and  _30
REMARK   14  A    between atoms: _30  and  _31
REMARK   15  A    between atoms: _33  and  _35
REMARK   16  A    between atoms: _35  and  _36
REMARK   17  A    between atoms: _35  and  _38
REMARK   18  A    between atoms: _38  and  _39
REMARK   19  A    between atoms: _39  and  _40
REMARK   20  A    between atoms: _40  and  _41
REMARK   21  A    between atoms: _50  and  _52
REMARK   22  A    between atoms: _52  and  _53
REMARK   23  A    between atoms: _56  and  _58
REMARK   24  A    between atoms: _58  and  _59
REMARK   25  A    between atoms: _58  and  _61
REMARK   26  A    between atoms: _61  and  _62
REMARK   27  A    between atoms: _65  and  _67
REMARK   28  A    between atoms: _67  and  _68
REMARK   29  A    between atoms: _67  and  _70
REMARK   30  A    between atoms: _70  and  _71
REMARK   31  A    between atoms: _81  and  _83
REMARK   32  A    between atoms: _83  and  _84
REMARK   33  A    between atoms: _83  and  _86
REMARK   34  A    between atoms: _86  and  _87
REMARK   35  A    between atoms: _87  and  _88
REMARK   36  A    between atoms: _93  and  _95
REMARK   37  A    between atoms: _95  and  _96
REMARK   38  A    between atoms: _95  and  _98
REMARK   39  A    between atoms: _98  and  _99
REMARK   40  A    between atoms: _105  and  _107
REMARK   41  A    between atoms: _107  and  _108
REMARK   42  A    between atoms: _107  and  _110
REMARK   43  A    between atoms: _110  and  _111
REMARK   44  A    between atoms: _111  and  _112
REMARK   45  A    between atoms: _112  and  _113
REMARK   46  A    between atoms: _122  and  _124
REMARK   47  A    between atoms: _124  and  _125
REMARK   48  A    between atoms: _124  and  _127
REMARK   49  A    between atoms: _127  and  _128
REMARK   50  A    between atoms: _130  and  _132
REMARK   51  A    between atoms: _132  and  _133
REMARK   52  A    between atoms: _132  and  _135
REMARK   53  A    between atoms: _135  and  _136
REMARK   54  A    between atoms: _136  and  _137
REMARK   55  A    between atoms: _139  and  _141
REMARK   56  A    between atoms: _141  and  _142
REMARK   57  A    between atoms: _141  and  _144
REMARK   58  A    between atoms: _144  and  _145
REMARK   59  A    between atoms: _148  and  _150
REMARK   60  A    between atoms: _150  and  _151
REMARK   61  A    between atoms: _150  and  _153
REMARK   62  A    between atoms: _153  and  _154
REMARK   63  A    between atoms: _154  and  _155
REMARK   64  A    between atoms: _155  and  _156
REMARK   65  A    between atoms: _156  and  _157
REMARK   66  A    between atoms: _161  and  _163
REMARK   67  A    between atoms: _163  and  _164
REMARK   68  A    between atoms: _163  and  _166
REMARK   69  A    between atoms: _166  and  _167
REMARK   70  A    between atoms: _173  and  _174
REMARK   71  A    between atoms: _179  and  _181
REMARK   72  A    between atoms: _181  and  _182
REMARK   73  A    between atoms: _181  and  _184
REMARK   74  A    between atoms: _184  and  _185
REMARK   75  A    between atoms: _188  and  _190
REMARK   76  A    between atoms: _190  and  _191
REMARK   77  A    between atoms: _190  and  _193
REMARK   78  A    between atoms: _193  and  _194
REMARK   79  A    between atoms: _194  and  _195
REMARK   80  A    between atoms: _197  and  _199
REMARK   81  A    between atoms: _199  and  _200
REMARK   82  A    between atoms: _199  and  _202
REMARK   83  A    between atoms: _202  and  _203
REMARK   84  A    between atoms: _206  and  _208
REMARK   85  A    between atoms: _208  and  _209
REMARK   86  A    between atoms: _208  and  _211
REMARK   87  A    between atoms: _211  and  _212
REMARK   88  A    between atoms: _218  and  _220
REMARK   89  A    between atoms: _220  and  _221
REMARK   90  A    between atoms: _220  and  _223
REMARK   91  A    between atoms: _223  and  _224
REMARK   92  A    between atoms: _229  and  _231
REMARK   93  A    between atoms: _231  and  _232
REMARK   94  A    between atoms: _231  and  _234
REMARK   95  A    between atoms: _234  and  _235
REMARK   96  A    between atoms: _240  and  _242
REMARK   97  A    between atoms: _242  and  _243
REMARK   98  A    between atoms: _242  and  _245
REMARK   99  A    between atoms: _245  and  _246
REMARK  100  A    between atoms: _251  and  _252
REMARK  101  A    between atoms: _254  and  _256
REMARK  102  A    between atoms: _256  and  _257
REMARK  103  A    between atoms: _256  and  _259
REMARK  104  A    between atoms: _261  and  _263
REMARK  105  A    between atoms: _263  and  _264
REMARK  106  A    between atoms: _263  and  _266
REMARK  107  A    between atoms: _266  and  _267
REMARK  108  A    between atoms: _272  and  _273
REMARK  109  A    between atoms: _277  and  _280
REMARK  110  A    between atoms: _280  and  _281
REMARK  111  A    between atoms: _281  and  _354
REMARK  112  A    between atoms: _285  and  _287
REMARK  113  A    between atoms: _287  and  _289
REMARK  114  A    between atoms: _289  and  _290
REMARK  115  A    between atoms: _289  and  _292
REMARK  116  A    between atoms: _292  and  _293
REMARK  117  A    between atoms: _296  and  _298
REMARK  118  A    between atoms: _298  and  _299
REMARK  119  A    between atoms: _301  and  _303
REMARK  120  A    between atoms: _303  and  _304
REMARK  121  A    between atoms: _306  and  _308
REMARK  122  A    between atoms: _308  and  _309
REMARK  123  A    between atoms: _308  and  _311
REMARK  124  A    between atoms: _311  and  _312
REMARK  125  A    between atoms: _315  and  _317
REMARK  126  A    between atoms: _317  and  _318
REMARK  127  A    between atoms: _317  and  _320
REMARK  128  A    between atoms: _320  and  _321
REMARK  129  A    between atoms: _324  and  _326
REMARK  130  A    between atoms: _326  and  _327
REMARK  131  A    between atoms: _326  and  _329
REMARK  132  A    between atoms: _329  and  _330
REMARK  133  A    between atoms: _330  and  _331
REMARK  134  A    between atoms: _331  and  _332
REMARK  135  A    between atoms: _341  and  _343
REMARK  136  A    between atoms: _343  and  _344
REMARK  137  A    between atoms: _343  and  _346
REMARK  138  A    between atoms: _348  and  _350
REMARK  139  A    between atoms: _350  and  _351
REMARK  140  A    between atoms: _350  and  _353
REMARK  141  A    between atoms: _353  and  _354
REMARK  142  A    between atoms: _355  and  _357
REMARK  143  A    between atoms: _357  and  _358
REMARK  144  A    between atoms: _357  and  _360
REMARK  145  A    between atoms: _360  and  _361
REMARK  146  A    between atoms: _361  and  _362
REMARK  147  A    between atoms: _365  and  _367
REMARK  148  A    between atoms: _367  and  _368
REMARK  149  A    between atoms: _367  and  _370
REMARK  150  A    between atoms: _370  and  _371
REMARK  151  A    between atoms: _374  and  _376
REMARK  152  A    between atoms: _376  and  _377
REMARK  153  A    between atoms: _376  and  _379
REMARK  154  A    between atoms: _379  and  _380
REMARK  155  A    between atoms: _385  and  _387
REMARK  156  A    between atoms: _387  and  _388
REMARK  157  A    between atoms: _387  and  _390
REMARK  158  A    between atoms: _390  and  _391
REMARK  159  A    between atoms: _394  and  _396
REMARK  160  A    between atoms: _396  and  _397
REMARK  161  A    between atoms: _396  and  _399
REMARK  162  A    between atoms: _399  and  _400
REMARK  163  A    between atoms: _405  and  _407
REMARK  164  A    between atoms: _407  and  _408
REMARK  165  A    between atoms: _407  and  _410
REMARK  166  A    between atoms: _410  and  _411
REMARK  167  A    between atoms: _411  and  _480
REMARK  168  A    between atoms: _412  and  _414
REMARK  169  A    between atoms: _414  and  _415
REMARK  170  A    between atoms: _414  and  _417
REMARK  171  A    between atoms: _417  and  _418
REMARK  172  A    between atoms: _423  and  _424
REMARK  173  A    between atoms: _426  and  _428
REMARK  174  A    between atoms: _428  and  _429
REMARK  175  A    between atoms: _428  and  _431
REMARK  176  A    between atoms: _431  and  _432
REMARK  177  A    between atoms: _432  and  _433
REMARK  178  A    between atoms: _433  and  _434
REMARK  179  A    between atoms: _443  and  _445
REMARK  180  A    between atoms: _445  and  _446
REMARK  181  A    between atoms: _445  and  _448
REMARK  182  A    between atoms: _448  and  _449
REMARK  183  A    between atoms: _452  and  _454
REMARK  184  A    between atoms: _454  and  _455
REMARK  185  A    between atoms: _454  and  _457
REMARK  186  A    between atoms: _457  and  _458
REMARK  187  A    between atoms: _458  and  _459
REMARK  188  A    between atoms: _459  and  _460
REMARK  189  A    between atoms: _460  and  _461
REMARK  190  A    between atoms: _465  and  _467
REMARK  191  A    between atoms: _467  and  _468
REMARK  192  A    between atoms: _467  and  _470
REMARK  193  A    between atoms: _470  and  _471
REMARK  194  A    between atoms: _474  and  _476
REMARK  195  A    between atoms: _476  and  _477
REMARK  196  A    between atoms: _476  and  _479
REMARK  197  A    between atoms: _479  and  _480
REMARK  198  A    between atoms: _481  and  _483
REMARK  199  A    between atoms: _483  and  _484
REMARK  200  A    between atoms: _483  and  _486
REMARK  201  A    between atoms: _486  and  _487
REMARK  202  A    between atoms: _490  and  _492
REMARK  203  A    between atoms: _492  and  _493
REMARK  204  A    between atoms: _496  and  _498
REMARK  205  A    between atoms: _498  and  _499
REMARK  206  A    between atoms: _502  and  _504
REMARK  207  A    between atoms: _504  and  _505
REMARK  208  A    between atoms: _504  and  _507
REMARK  209  A    between atoms: _507  and  _508
REMARK  210  A    between atoms: _514  and  _516
REMARK  211  A    between atoms: _516  and  _517
REMARK  212  A    between atoms: _516  and  _519
REMARK  213  A    between atoms: _519  and  _520
REMARK  214  A    between atoms: _522  and  _524
REMARK  215  A    between atoms: _524  and  _525
REMARK  216  A    between atoms: _524  and  _527
REMARK  217  A    between atoms: _527  and  _528
REMARK  218  A    between atoms: _530  and  _532
REMARK  219  A    between atoms: _532  and  _533
REMARK  220  A    between atoms: _532  and  _535
REMARK  221  A    between atoms: _535  and  _536
REMARK  222  A    between atoms: _536  and  _537
REMARK  223  A    between atoms: _537  and  _538
REMARK  224  A    between atoms: _547  and  _549
REMARK  225  A    between atoms: _549  and  _550
REMARK  226  A    between atoms: _553  and  _555
REMARK  227  A    between atoms: _555  and  _556
REMARK  228  A    between atoms: _555  and  _558
REMARK  229  A    between atoms: _558  and  _559
REMARK  230  A    between atoms: _562  and  _564
REMARK  231  A    between atoms: _564  and  _565
REMARK  232  A    between atoms: _564  and  _567
REMARK  233  A    between atoms: _567  and  _568
REMARK  234  A    between atoms: _578  and  _580
REMARK  235  A    between atoms: _580  and  _581
REMARK  236  A    between atoms: _580  and  _583
REMARK  237  A    between atoms: _583  and  _584
REMARK  238  A    between atoms: _584  and  _585
REMARK  239  A    between atoms: _590  and  _592
REMARK  240  A    between atoms: _592  and  _593
REMARK  241  A    between atoms: _592  and  _595
REMARK  242  A    between atoms: _595  and  _596
REMARK  243  A    between atoms: _602  and  _604
REMARK  244  A    between atoms: _604  and  _605
REMARK  245  A    between atoms: _604  and  _607
REMARK  246  A    between atoms: _607  and  _608
REMARK  247  A    between atoms: _608  and  _609
REMARK  248  A    between atoms: _609  and  _610
REMARK  249  A    between atoms: _619  and  _621
REMARK  250  A    between atoms: _621  and  _622
REMARK  251  A    between atoms: _621  and  _624
REMARK  252  A    between atoms: _624  and  _625
REMARK  253  A    between atoms: _627  and  _629
REMARK  254  A    between atoms: _629  and  _630
REMARK  255  A    between atoms: _629  and  _632
REMARK  256  A    between atoms: _632  and  _633
REMARK  257  A    between atoms: _633  and  _634
REMARK  258  A    between atoms: _636  and  _638
REMARK  259  A    between atoms: _638  and  _639
REMARK  260  A    between atoms: _638  and  _641
REMARK  261  A    between atoms: _641  and  _642
REMARK  262  A    between atoms: _645  and  _647
REMARK  263  A    between atoms: _647  and  _648
REMARK  264  A    between atoms: _647  and  _650
REMARK  265  A    between atoms: _650  and  _651
REMARK  266  A    between atoms: _651  and  _652
REMARK  267  A    between atoms: _652  and  _653
REMARK  268  A    between atoms: _653  and  _654
REMARK  269  A    between atoms: _658  and  _660
REMARK  270  A    between atoms: _660  and  _661
REMARK  271  A    between atoms: _660  and  _663
REMARK  272  A    between atoms: _663  and  _664
REMARK  273  A    between atoms: _670  and  _671
REMARK  274  A    between atoms: _676  and  _678
REMARK  275  A    between atoms: _678  and  _679
REMARK  276  A    between atoms: _678  and  _681
REMARK  277  A    between atoms: _681  and  _682
REMARK  278  A    between atoms: _685  and  _687
REMARK  279  A    between atoms: _687  and  _688
REMARK  280  A    between atoms: _687  and  _690
REMARK  281  A    between atoms: _690  and  _691
REMARK  282  A    between atoms: _691  and  _692
REMARK  283  A    between atoms: _694  and  _696
REMARK  284  A    between atoms: _696  and  _697
REMARK  285  A    between atoms: _696  and  _699
REMARK  286  A    between atoms: _699  and  _700
REMARK  287  A    between atoms: _703  and  _705
REMARK  288  A    between atoms: _705  and  _706
REMARK  289  A    between atoms: _705  and  _708
REMARK  290  A    between atoms: _708  and  _709
REMARK  291  A    between atoms: _715  and  _717
REMARK  292  A    between atoms: _717  and  _718
REMARK  293  A    between atoms: _717  and  _720
REMARK  294  A    between atoms: _720  and  _721
REMARK  295  A    between atoms: _726  and  _728
REMARK  296  A    between atoms: _728  and  _729
REMARK  297  A    between atoms: _728  and  _731
REMARK  298  A    between atoms: _731  and  _732
REMARK  299  A    between atoms: _737  and  _739
REMARK  300  A    between atoms: _739  and  _740
REMARK  301  A    between atoms: _739  and  _742
REMARK  302  A    between atoms: _742  and  _743
REMARK  303  A    between atoms: _743  and  _755
REMARK  304  A    between atoms: _744  and  _746
REMARK  305  A    between atoms: _746  and  _747
REMARK  306  A    between atoms: _749  and  _751
REMARK  307  A    between atoms: _751  and  _752
REMARK  308  A    between atoms: _751  and  _754
REMARK  309  A    between atoms: _754  and  _755
REMARK  310  A    between atoms: _756  and  _758
REMARK  311  A    between atoms: _758  and  _759
REMARK  312  A    between atoms: _758  and  _761
REMARK  313  A    between atoms: _761  and  _762
REMARK  314  A    between atoms: _767  and  _769
REMARK  315  A    between atoms: _769  and  _770
REMARK  316  A    between atoms: _769  and  _772
REMARK  317  A    between atoms: _772  and  _773
REMARK  318  A    between atoms: _778  and  _779
REMARK  319  A    between atoms: _781  and  _783
REMARK  320  A    between atoms: _783  and  _784
REMARK  321  A    between atoms: _783  and  _786
REMARK  322  A    between atoms: _786  and  _787
REMARK                            x       y       z     vdW  Elec       q    Type
REMARK                         _______ _______ _______ _____ _____    ______ ____
ROOT
ATOM      1  O   HOH     1      10.694  18.824  22.901  0.00  0.00    +0.000 OA
ENDROOT
TORSDOF 0
REMARK  Name = ../refined-set-2016/1hn4/1hn4_pocket.pdb
REMARK  322 active torsions:
REMARK  status: ('A' for Active; 'I' for Inactive)
REMARK    1  A    between atoms: _1  and  _5
REMARK    2  A    between atoms: _5  and  _6
REMARK    3  A    between atoms: _8  and  _10
REMARK    4  A    between atoms: _10  and  _11
REMARK    5  A    between atoms: _10  and  _13
REMARK    6  A    between atoms: _13  and  _14
REMARK    7  A    between atoms: _17  and  _19
REMARK    8  A    between atoms: _19  and  _20
REMARK    9  A    between atoms: _19  and  _22
REMARK   10  A    between atoms: _22  and  _23
REMARK   11  A    between atoms: _25  and  _27
REMARK   12  A    between atoms: _27  and  _28
REMARK   13  A    between atoms: _27  and  _30
REMARK   14  A    between atoms: _30  and  _31
REMARK   15  A    between atoms: _33  and  _35
REMARK   16  A    between atoms: _35  and  _36
REMARK   17  A    between atoms: _35  and  _38
REMARK   18  A    between atoms: _38  and  _39
REMARK   19  A    between atoms: _39  and  _40
REMARK   20  A    between atoms: _40  and  _41
REMARK   21  A    between atoms: _50  and  _52
REMARK   22  A    between atoms: _52  and  _53
REMARK   23  A    between atoms: _56  and  _58
REMARK   24  A    between atoms: _58  and  _59
REMARK   25  A    between atoms: _58  and  _61
REMARK   26  A    between atoms: _61  and  _62
REMARK   27  A    between atoms: _65  and  _67
REMARK   28  A    between atoms: _67  and  _68
REMARK   29  A    between atoms: _67  and  _70
REMARK   30  A    between atoms: _70  and  _71
REMARK   31  A    between atoms: _81  and  _83
REMARK   32  A    between atoms: _83  and  _84
REMARK   33  A    between atoms: _83  and  _86
REMARK   34  A    between atoms: _86  and  _87
REMARK   35  A    between atoms: _87  and  _88
REMARK   36  A    between atoms: _93  and  _95
REMARK   37  A    between atoms: _95  and  _96
REMARK   38  A    between atoms: _95  and  _98
REMARK   39  A    between atoms: _98  and  _99
REMARK   40  A    between atoms: _105  and  _107
REMARK   41  A    between atoms: _107  and  _108
REMARK   42  A    between atoms: _107  and  _110
REMARK   43  A    between atoms: _110  and  _111
REMARK   44  A    between atoms: _111  and  _112
REMARK   45  A    between atoms: _112  and  _113
REMARK   46  A    between atoms: _122  and  _124
REMARK   47  A    between atoms: _124  and  _125
REMARK   48  A    between atoms: _124  and  _127
REMARK   49  A    between atoms: _127  and  _128
REMARK   50  A    between atoms: _130  and  _132
REMARK   51  A    between atoms: _132  and  _133
REMARK   52  A    between atoms: _132  and  _135
REMARK   53  A    between atoms: _135  and  _136
REMARK   54  A    between atoms: _136  and  _137
REMARK   55  A    between atoms: _139  and  _141
REMARK   56  A    between atoms: _141  and  _142
REMARK   57  A    between atoms: _141  and  _144
REMARK   58  A    between atoms: _144  and  _145
REMARK   59  A    between atoms: _148  and  _150
REMARK   60  A    between atoms: _150  and  _151
REMARK   61  A    between atoms: _150  and  _153
REMARK   62  A    between atoms: _153  and  _154
REMARK   63  A    between atoms: _154  and  _155
REMARK   64  A    between atoms: _155  and  _156
REMARK   65  A    between atoms: _156  and  _157
REMARK   66  A    between atoms: _161  and  _163
REMARK   67  A    between atoms: _163  and  _164
REMARK   68  A    between atoms: _163  and  _166
REMARK   69  A    between atoms: _166  and  _167
REMARK   70  A    between atoms: _173  and  _174
REMARK   71  A    between atoms: _179  and  _181
REMARK   72  A    between atoms: _181  and  _182
REMARK   73  A    between atoms: _181  and  _184
REMARK   74  A    between atoms: _184  and  _185
REMARK   75  A    between atoms: _188  and  _190
REMARK   76  A    between atoms: _190  and  _191
REMARK   77  A    between atoms: _190  and  _193
REMARK   78  A    between atoms: _193  and  _194
REMARK   79  A    between atoms: _194  and  _195
REMARK   80  A    between atoms: _197  and  _199
REMARK   81  A    between atoms: _199  and  _200
REMARK   82  A    between atoms: _199  and  _202
REMARK   83  A    between atoms: _202  and  _203
REMARK   84  A    between atoms: _206  and  _208
REMARK   85  A    between atoms: _208  and  _209
REMARK   86  A    between atoms: _208  and  _211
REMARK   87  A    between atoms: _211  and  _212
REMARK   88  A    between atoms: _218  and  _220
REMARK   89  A    between atoms: _220  and  _221
REMARK   90  A    between atoms: _220  and  _223
REMARK   91  A    between atoms: _223  and  _224
REMARK   92  A    between atoms: _229  and  _231
REMARK   93  A    between atoms: _231  and  _232
REMARK   94  A    between atoms: _231  and  _234
REMARK   95  A    between atoms: _234  and  _235
REMARK   96  A    between atoms: _240  and  _242
REMARK   97  A    between atoms: _242  and  _243
REMARK   98  A    between atoms: _242  and  _245
REMARK   99  A    between atoms: _245  and  _246
REMARK  100  A    between atoms: _251  and  _252
REMARK  101  A    between atoms: _254  and  _256
REMARK  102  A    between atoms: _256  and  _257
REMARK  103  A    between atoms: _256  and  _259
REMARK  104  A    between atoms: _261  and  _263
REMARK  105  A    between atoms: _263  and  _264
REMARK  106  A    between atoms: _263  and  _266
REMARK  107  A    between atoms: _266  and  _267
REMARK  108  A    between atoms: _272  and  _273
REMARK  109  A    between atoms: _277  and  _280
REMARK  110  A    between atoms: _280  and  _281
REMARK  111  A    between atoms: _281  and  _354
REMARK  112  A    between atoms: _285  and  _287
REMARK  113  A    between atoms: _287  and  _289
REMARK  114  A    between atoms: _289  and  _290
REMARK  115  A    between atoms: _289  and  _292
REMARK  116  A    between atoms: _292  and  _293
REMARK  117  A    between atoms: _296  and  _298
REMARK  118  A    between atoms: _298  and  _299
REMARK  119  A    between atoms: _301  and  _303
REMARK  120  A    between atoms: _303  and  _304
REMARK  121  A    between atoms: _306  and  _308
REMARK  122  A    between atoms: _308  and  _309
REMARK  123  A    between atoms: _308  and  _311
REMARK  124  A    between atoms: _311  and  _312
REMARK  125  A    between atoms: _315  and  _317
REMARK  126  A    between atoms: _317  and  _318
REMARK  127  A    between atoms: _317  and  _320
REMARK  128  A    between atoms: _320  and  _321
REMARK  129  A    between atoms: _324  and  _326
REMARK  130  A    between atoms: _326  and  _327
REMARK  131  A    between atoms: _326  and  _329
REMARK  132  A    between atoms: _329  and  _330
REMARK  133  A    between atoms: _330  and  _331
REMARK  134  A    between atoms: _331  and  _332
REMARK  135  A    between atoms: _341  and  _343
REMARK  136  A    between atoms: _343  and  _344
REMARK  137  A    between atoms: _343  and  _346
REMARK  138  A    between atoms: _348  and  _350
REMARK  139  A    between atoms: _350  and  _351
REMARK  140  A    between atoms: _350  and  _353
REMARK  141  A    between atoms: _353  and  _354
REMARK  142  A    between atoms: _355  and  _357
REMARK  143  A    between atoms: _357  and  _358
REMARK  144  A    between atoms: _357  and  _360
REMARK  145  A    between atoms: _360  and  _361
REMARK  146  A    between atoms: _361  and  _362
REMARK  147  A    between atoms: _365  and  _367
REMARK  148  A    between atoms: _367  and  _368
REMARK  149  A    between atoms: _367  and  _370
REMARK  150  A    between atoms: _370  and  _371
REMARK  151  A    between atoms: _374  and  _376
REMARK  152  A    between atoms: _376  and  _377
REMARK  153  A    between atoms: _376  and  _379
REMARK  154  A    between atoms: _379  and  _380
REMARK  155  A    between atoms: _385  and  _387
REMARK  156  A    between atoms: _387  and  _388
REMARK  157  A    between atoms: _387  and  _390
REMARK  158  A    between atoms: _390  and  _391
REMARK  159  A    between atoms: _394  and  _396
REMARK  160  A    between atoms: _396  and  _397
REMARK  161  A    between atoms: _396  and  _399
REMARK  162  A    between atoms: _399  and  _400
REMARK  163  A    between atoms: _405  and  _407
REMARK  164  A    between atoms: _407  and  _408
REMARK  165  A    between atoms: _407  and  _410
REMARK  166  A    between atoms: _410  and  _411
REMARK  167  A    between atoms: _411  and  _480
REMARK  168  A    between atoms: _412  and  _414
REMARK  169  A    between atoms: _414  and  _415
REMARK  170  A    between atoms: _414  and  _417
REMARK  171  A    between atoms: _417  and  _418
REMARK  172  A    between atoms: _423  and  _424
REMARK  173  A    between atoms: _426  and  _428
REMARK  174  A    between atoms: _428  and  _429
REMARK  175  A    between atoms: _428  and  _431
REMARK  176  A    between atoms: _431  and  _432
REMARK  177  A    between atoms: _432  and  _433
REMARK  178  A    between atoms: _433  and  _434
REMARK  179  A    between atoms: _443  and  _445
REMARK  180  A    between atoms: _445  and  _446
REMARK  181  A    between atoms: _445  and  _448
REMARK  182  A    between atoms: _448  and  _449
REMARK  183  A    between atoms: _452  and  _454
REMARK  184  A    between atoms: _454  and  _455
REMARK  185  A    between atoms: _454  and  _457
REMARK  186  A    between atoms: _457  and  _458
REMARK  187  A    between atoms: _458  and  _459
REMARK  188  A    between atoms: _459  and  _460
REMARK  189  A    between atoms: _460  and  _461
REMARK  190  A    between atoms: _465  and  _467
REMARK  191  A    between atoms: _467  and  _468
REMARK  192  A    between atoms: _467  and  _470
REMARK  193  A    between atoms: _470  and  _471
REMARK  194  A    between atoms: _474  and  _476
REMARK  195  A    between atoms: _476  and  _477
REMARK  196  A    between atoms: _476  and  _479
REMARK  197  A    between atoms: _479  and  _480
REMARK  198  A    between atoms: _481  and  _483
REMARK  199  A    between atoms: _483  and  _484
REMARK  200  A    between atoms: _483  and  _486
REMARK  201  A    between atoms: _486  and  _487
REMARK  202  A    between atoms: _490  and  _492
REMARK  203  A    between atoms: _492  and  _493
REMARK  204  A    between atoms: _496  and  _498
REMARK  205  A    between atoms: _498  and  _499
REMARK  206  A    between atoms: _502  and  _504
REMARK  207  A    between atoms: _504  and  _505
REMARK  208  A    between atoms: _504  and  _507
REMARK  209  A    between atoms: _507  and  _508
REMARK  210  A    between atoms: _514  and  _516
REMARK  211  A    between atoms: _516  and  _517
REMARK  212  A    between atoms: _516  and  _519
REMARK  213  A    between atoms: _519  and  _520
REMARK  214  A    between atoms: _522  and  _524
REMARK  215  A    between atoms: _524  and  _525
REMARK  216  A    between atoms: _524  and  _527
REMARK  217  A    between atoms: _527  and  _528
REMARK  218  A    between atoms: _530  and  _532
REMARK  219  A    between atoms: _532  and  _533
REMARK  220  A    between atoms: _532  and  _535
REMARK  221  A    between atoms: _535  and  _536
REMARK  222  A    between atoms: _536  and  _537
REMARK  223  A    between atoms: _537  and  _538
REMARK  224  A    between atoms: _547  and  _549
REMARK  225  A    between atoms: _549  and  _550
REMARK  226  A    between atoms: _553  and  _555
REMARK  227  A    between atoms: _555  and  _556
REMARK  228  A    between atoms: _555  and  _558
REMARK  229  A    between atoms: _558  and  _559
REMARK  230  A    between atoms: _562  and  _564
REMARK  231  A    between atoms: _564  and  _565
REMARK  232  A    between atoms: _564  and  _567
REMARK  233  A    between atoms: _567  and  _568
REMARK  234  A    between atoms: _578  and  _580
REMARK  235  A    between atoms: _580  and  _581
REMARK  236  A    between atoms: _580  and  _583
REMARK  237  A    between atoms: _583  and  _584
REMARK  238  A    between atoms: _584  and  _585
REMARK  239  A    between atoms: _590  and  _592
REMARK  240  A    between atoms: _592  and  _593
REMARK  241  A    between atoms: _592  and  _595
REMARK  242  A    between atoms: _595  and  _596
REMARK  243  A    between atoms: _602  and  _604
REMARK  244  A    between atoms: _604  and  _605
REMARK  245  A    between atoms: _604  and  _607
REMARK  246  A    between atoms: _607  and  _608
REMARK  247  A    between atoms: _608  and  _609
REMARK  248  A    between atoms: _609  and  _610
REMARK  249  A    between atoms: _619  and  _621
REMARK  250  A    between atoms: _621  and  _622
REMARK  251  A    between atoms: _621  and  _624
REMARK  252  A    between atoms: _624  and  _625
REMARK  253  A    between atoms: _627  and  _629
REMARK  254  A    between atoms: _629  and  _630
REMARK  255  A    between atoms: _629  and  _632
REMARK  256  A    between atoms: _632  and  _633
REMARK  257  A    between atoms: _633  and  _634
REMARK  258  A    between atoms: _636  and  _638
REMARK  259  A    between atoms: _638  and  _639
REMARK  260  A    between atoms: _638  and  _641
REMARK  261  A    between atoms: _641  and  _642
REMARK  262  A    between atoms: _645  and  _647
REMARK  263  A    between atoms: _647  and  _648
REMARK  264  A    between atoms: _647  and  _650
REMARK  265  A    between atoms: _650  and  _651
REMARK  266  A    between atoms: _651  and  _652
REMARK  267  A    between atoms: _652  and  _653
REMARK  268  A    between atoms: _653  and  _654
REMARK  269  A    between atoms: _658  and  _660
REMARK  270  A    between atoms: _660  and  _661
REMARK  271  A    between atoms: _660  and  _663
REMARK  272  A    between atoms: _663  and  _664
REMARK  273  A    between atoms: _670  and  _671
REMARK  274  A    between atoms: _676  and  _678
REMARK  275  A    between atoms: _678  and  _679
REMARK  276  A    between atoms: _678  and  _681
REMARK  277  A    between atoms: _681  and  _682
REMARK  278  A    between atoms: _685  and  _687
REMARK  279  A    between atoms: _687  and  _688
REMARK  280  A    between atoms: _687  and  _690
REMARK  281  A    between atoms: _690  and  _691
REMARK  282  A    between atoms: _691  and  _692
REMARK  283  A    between atoms: _694  and  _696
REMARK  284  A    between atoms: _696  and  _697
REMARK  285  A    between atoms: _696  and  _699
REMARK  286  A    between atoms: _699  and  _700
REMARK  287  A    between atoms: _703  and  _705
REMARK  288  A    between atoms: _705  and  _706
REMARK  289  A    between atoms: _705  and  _708
REMARK  290  A    between atoms: _708  and  _709
REMARK  291  A    between atoms: _715  and  _717
REMARK  292  A    between atoms: _717  and  _718
REMARK  293  A    between atoms: _717  and  _720
REMARK  294  A    between atoms: _720  and  _721
REMARK  295  A    between atoms: _726  and  _728
REMARK  296  A    between atoms: _728  and  _729
REMARK  297  A    between atoms: _728  and  _731
REMARK  298  A    between atoms: _731  and  _732
REMARK  299  A    between atoms: _737  and  _739
REMARK  300  A    between atoms: _739  and  _740
REMARK  301  A    between atoms: _739  and  _742
REMARK  302  A    between atoms: _742  and  _743
REMARK  303  A    between atoms: _743  and  _755
REMARK  304  A    between atoms: _744  and  _746
REMARK  305  A    between atoms: _746  and  _747
REMARK  306  A    between atoms: _749  and  _751
REMARK  307  A    between atoms: _751  and  _752
REMARK  308  A    between atoms: _751  and  _754
REMARK  309  A    between atoms: _754  and  _755
REMARK  310  A    between atoms: _756  and  _758
REMARK  311  A    between atoms: _758  and  _759
REMARK  312  A    between atoms: _758  and  _761
REMARK  313  A    between atoms: _761  and  _762
REMARK  314  A    between atoms: _767  and  _769
REMARK  315  A    between atoms: _769  and  _770
REMARK  316  A    between atoms: _769  and  _772
REMARK  317  A    between atoms: _772  and  _773
REMARK  318  A    between atoms: _778  and  _779
REMARK  319  A    between atoms: _781  and  _783
REMARK  320  A    between atoms: _783  and  _784
REMARK  321  A    between atoms: _783  and  _786
REMARK  322  A    between atoms: _786  and  _787
REMARK                            x       y       z     vdW  Elec       q    Type
REMARK                         _______ _______ _______ _____ _____    ______ ____
ROOT
ATOM      1  O   HOH     1      16.566  19.667   1.901  0.00  0.00    +0.000 OA
ENDROOT
TORSDOF 0
REMARK  Name = ../refined-set-2016/1hn4/1hn4_pocket.pdb
REMARK  322 active torsions:
REMARK  status: ('A' for Active; 'I' for Inactive)
REMARK    1  A    between atoms: _1  and  _5
REMARK    2  A    between atoms: _5  and  _6
REMARK    3  A    between atoms: _8  and  _10
REMARK    4  A    between atoms: _10  and  _11
REMARK    5  A    between atoms: _10  and  _13
REMARK    6  A    between atoms: _13  and  _14
REMARK    7  A    between atoms: _17  and  _19
REMARK    8  A    between atoms: _19  and  _20
REMARK    9  A    between atoms: _19  and  _22
REMARK   10  A    between atoms: _22  and  _23
REMARK   11  A    between atoms: _25  and  _27
REMARK   12  A    between atoms: _27  and  _28
REMARK   13  A    between atoms: _27  and  _30
REMARK   14  A    between atoms: _30  and  _31
REMARK   15  A    between atoms: _33  and  _35
REMARK   16  A    between atoms: _35  and  _36
REMARK   17  A    between atoms: _35  and  _38
REMARK   18  A    between atoms: _38  and  _39
REMARK   19  A    between atoms: _39  and  _40
REMARK   20  A    between atoms: _40  and  _41
REMARK   21  A    between atoms: _50  and  _52
REMARK   22  A    between atoms: _52  and  _53
REMARK   23  A    between atoms: _56  and  _58
REMARK   24  A    between atoms: _58  and  _59
REMARK   25  A    between atoms: _58  and  _61
REMARK   26  A    between atoms: _61  and  _62
REMARK   27  A    between atoms: _65  and  _67
REMARK   28  A    between atoms: _67  and  _68
REMARK   29  A    between atoms: _67  and  _70
REMARK   30  A    between atoms: _70  and  _71
REMARK   31  A    between atoms: _81  and  _83
REMARK   32  A    between atoms: _83  and  _84
REMARK   33  A    between atoms: _83  and  _86
REMARK   34  A    between atoms: _86  and  _87
REMARK   35  A    between atoms: _87  and  _88
REMARK   36  A    between atoms: _93  and  _95
REMARK   37  A    between atoms: _95  and  _96
REMARK   38  A    between atoms: _95  and  _98
REMARK   39  A    between atoms: _98  and  _99
REMARK   40  A    between atoms: _105  and  _107
REMARK   41  A    between atoms: _107  and  _108
REMARK   42  A    between atoms: _107  and  _110
REMARK   43  A    between atoms: _110  and  _111
REMARK   44  A    between atoms: _111  and  _112
REMARK   45  A    between atoms: _112  and  _113
REMARK   46  A    between atoms: _122  and  _124
REMARK   47  A    between atoms: _124  and  _125
REMARK   48  A    between atoms: _124  and  _127
REMARK   49  A    between atoms: _127  and  _128
REMARK   50  A    between atoms: _130  and  _132
REMARK   51  A    between atoms: _132  and  _133
REMARK   52  A    between atoms: _132  and  _135
REMARK   53  A    between atoms: _135  and  _136
REMARK   54  A    between atoms: _136  and  _137
REMARK   55  A    between atoms: _139  and  _141
REMARK   56  A    between atoms: _141  and  _142
REMARK   57  A    between atoms: _141  and  _144
REMARK   58  A    between atoms: _144  and  _145
REMARK   59  A    between atoms: _148  and  _150
REMARK   60  A    between atoms: _150  and  _151
REMARK   61  A    between atoms: _150  and  _153
REMARK   62  A    between atoms: _153  and  _154
REMARK   63  A    between atoms: _154  and  _155
REMARK   64  A    between atoms: _155  and  _156
REMARK   65  A    between atoms: _156  and  _157
REMARK   66  A    between atoms: _161  and  _163
REMARK   67  A    between atoms: _163  and  _164
REMARK   68  A    between atoms: _163  and  _166
REMARK   69  A    between atoms: _166  and  _167
REMARK   70  A    between atoms: _173  and  _174
REMARK   71  A    between atoms: _179  and  _181
REMARK   72  A    between atoms: _181  and  _182
REMARK   73  A    between atoms: _181  and  _184
REMARK   74  A    between atoms: _184  and  _185
REMARK   75  A    between atoms: _188  and  _190
REMARK   76  A    between atoms: _190  and  _191
REMARK   77  A    between atoms: _190  and  _193
REMARK   78  A    between atoms: _193  and  _194
REMARK   79  A    between atoms: _194  and  _195
REMARK   80  A    between atoms: _197  and  _199
REMARK   81  A    between atoms: _199  and  _200
REMARK   82  A    between atoms: _199  and  _202
REMARK   83  A    between atoms: _202  and  _203
REMARK   84  A    between atoms: _206  and  _208
REMARK   85  A    between atoms: _208  and  _209
REMARK   86  A    between atoms: _208  and  _211
REMARK   87  A    between atoms: _211  and  _212
REMARK   88  A    between atoms: _218  and  _220
REMARK   89  A    between atoms: _220  and  _221
REMARK   90  A    between atoms: _220  and  _223
REMARK   91  A    between atoms: _223  and  _224
REMARK   92  A    between atoms: _229  and  _231
REMARK   93  A    between atoms: _231  and  _232
REMARK   94  A    between atoms: _231  and  _234
REMARK   95  A    between atoms: _234  and  _235
REMARK   96  A    between atoms: _240  and  _242
REMARK   97  A    between atoms: _242  and  _243
REMARK   98  A    between atoms: _242  and  _245
REMARK   99  A    between atoms: _245  and  _246
REMARK  100  A    between atoms: _251  and  _252
REMARK  101  A    between atoms: _254  and  _256
REMARK  102  A    between atoms: _256  and  _257
REMARK  103  A    between atoms: _256  and  _259
REMARK  104  A    between atoms: _261  and  _263
REMARK  105  A    between atoms: _263  and  _264
REMARK  106  A    between atoms: _263  and  _266
REMARK  107  A    between atoms: _266  and  _267
REMARK  108  A    between atoms: _272  and  _273
REMARK  109  A    between atoms: _277  and  _280
REMARK  110  A    between atoms: _280  and  _281
REMARK  111  A    between atoms: _281  and  _354
REMARK  112  A    between atoms: _285  and  _287
REMARK  113  A    between atoms: _287  and  _289
REMARK  114  A    between atoms: _289  and  _290
REMARK  115  A    between atoms: _289  and  _292
REMARK  116  A    between atoms: _292  and  _293
REMARK  117  A    between atoms: _296  and  _298
REMARK  118  A    between atoms: _298  and  _299
REMARK  119  A    between atoms: _301  and  _303
REMARK  120  A    between atoms: _303  and  _304
REMARK  121  A    between atoms: _306  and  _308
REMARK  122  A    between atoms: _308  and  _309
REMARK  123  A    between atoms: _308  and  _311
REMARK  124  A    between atoms: _311  and  _312
REMARK  125  A    between atoms: _315  and  _317
REMARK  126  A    between atoms: _317  and  _318
REMARK  127  A    between atoms: _317  and  _320
REMARK  128  A    between atoms: _320  and  _321
REMARK  129  A    between atoms: _324  and  _326
REMARK  130  A    between atoms: _326  and  _327
REMARK  131  A    between atoms: _326  and  _329
REMARK  132  A    between atoms: _329  and  _330
REMARK  133  A    between atoms: _330  and  _331
REMARK  134  A    between atoms: _331  and  _332
REMARK  135  A    between atoms: _341  and  _343
REMARK  136  A    between atoms: _343  and  _344
REMARK  137  A    between atoms: _343  and  _346
REMARK  138  A    between atoms: _348  and  _350
REMARK  139  A    between atoms: _350  and  _351
REMARK  140  A    between atoms: _350  and  _353
REMARK  141  A    between atoms: _353  and  _354
REMARK  142  A    between atoms: _355  and  _357
REMARK  143  A    between atoms: _357  and  _358
REMARK  144  A    between atoms: _357  and  _360
REMARK  145  A    between atoms: _360  and  _361
REMARK  146  A    between atoms: _361  and  _362
REMARK  147  A    between atoms: _365  and  _367
REMARK  148  A    between atoms: _367  and  _368
REMARK  149  A    between atoms: _367  and  _370
REMARK  150  A    between atoms: _370  and  _371
REMARK  151  A    between atoms: _374  and  _376
REMARK  152  A    between atoms: _376  and  _377
REMARK  153  A    between atoms: _376  and  _379
REMARK  154  A    between atoms: _379  and  _380
REMARK  155  A    between atoms: _385  and  _387
REMARK  156  A    between atoms: _387  and  _388
REMARK  157  A    between atoms: _387  and  _390
REMARK  158  A    between atoms: _390  and  _391
REMARK  159  A    between atoms: _394  and  _396
REMARK  160  A    between atoms: _396  and  _397
REMARK  161  A    between atoms: _396  and  _399
REMARK  162  A    between atoms: _399  and  _400
REMARK  163  A    between atoms: _405  and  _407
REMARK  164  A    between atoms: _407  and  _408
REMARK  165  A    between atoms: _407  and  _410
REMARK  166  A    between atoms: _410  and  _411
REMARK  167  A    between atoms: _411  and  _480
REMARK  168  A    between atoms: _412  and  _414
REMARK  169  A    between atoms: _414  and  _415
REMARK  170  A    between atoms: _414  and  _417
REMARK  171  A    between atoms: _417  and  _418
REMARK  172  A    between atoms: _423  and  _424
REMARK  173  A    between atoms: _426  and  _428
REMARK  174  A    between atoms: _428  and  _429
REMARK  175  A    between atoms: _428  and  _431
REMARK  176  A    between atoms: _431  and  _432
REMARK  177  A    between atoms: _432  and  _433
REMARK  178  A    between atoms: _433  and  _434
REMARK  179  A    between atoms: _443  and  _445
REMARK  180  A    between atoms: _445  and  _446
REMARK  181  A    between atoms: _445  and  _448
REMARK  182  A    between atoms: _448  and  _449
REMARK  183  A    between atoms: _452  and  _454
REMARK  184  A    between atoms: _454  and  _455
REMARK  185  A    between atoms: _454  and  _457
REMARK  186  A    between atoms: _457  and  _458
REMARK  187  A    between atoms: _458  and  _459
REMARK  188  A    between atoms: _459  and  _460
REMARK  189  A    between atoms: _460  and  _461
REMARK  190  A    between atoms: _465  and  _467
REMARK  191  A    between atoms: _467  and  _468
REMARK  192  A    between atoms: _467  and  _470
REMARK  193  A    between atoms: _470  and  _471
REMARK  194  A    between atoms: _474  and  _476
REMARK  195  A    between atoms: _476  and  _477
REMARK  196  A    between atoms: _476  and  _479
REMARK  197  A    between atoms: _479  and  _480
REMARK  198  A    between atoms: _481  and  _483
REMARK  199  A    between atoms: _483  and  _484
REMARK  200  A    between atoms: _483  and  _486
REMARK  201  A    between atoms: _486  and  _487
REMARK  202  A    between atoms: _490  and  _492
REMARK  203  A    between atoms: _492  and  _493
REMARK  204  A    between atoms: _496  and  _498
REMARK  205  A    between atoms: _498  and  _499
REMARK  206  A    between atoms: _502  and  _504
REMARK  207  A    between atoms: _504  and  _505
REMARK  208  A    between atoms: _504  and  _507
REMARK  209  A    between atoms: _507  and  _508
REMARK  210  A    between atoms: _514  and  _516
REMARK  211  A    between atoms: _516  and  _517
REMARK  212  A    between atoms: _516  and  _519
REMARK  213  A    between atoms: _519  and  _520
REMARK  214  A    between atoms: _522  and  _524
REMARK  215  A    between atoms: _524  and  _525
REMARK  216  A    between atoms: _524  and  _527
REMARK  217  A    between atoms: _527  and  _528
REMARK  218  A    between atoms: _530  and  _532
REMARK  219  A    between atoms: _532  and  _533
REMARK  220  A    between atoms: _532  and  _535
REMARK  221  A    between atoms: _535  and  _536
REMARK  222  A    between atoms: _536  and  _537
REMARK  223  A    between atoms: _537  and  _538
REMARK  224  A    between atoms: _547  and  _549
REMARK  225  A    between atoms: _549  and  _550
REMARK  226  A    between atoms: _553  and  _555
REMARK  227  A    between atoms: _555  and  _556
REMARK  228  A    between atoms: _555  and  _558
REMARK  229  A    between atoms: _558  and  _559
REMARK  230  A    between atoms: _562  and  _564
REMARK  231  A    between atoms: _564  and  _565
REMARK  232  A    between atoms: _564  and  _567
REMARK  233  A    between atoms: _567  and  _568
REMARK  234  A    between atoms: _578  and  _580
REMARK  235  A    between atoms: _580  and  _581
REMARK  236  A    between atoms: _580  and  _583
REMARK  237  A    between atoms: _583  and  _584
REMARK  238  A    between atoms: _584  and  _585
REMARK  239  A    between atoms: _590  and  _592
REMARK  240  A    between atoms: _592  and  _593
REMARK  241  A    between atoms: _592  and  _595
REMARK  242  A    between atoms: _595  and  _596
REMARK  243  A    between atoms: _602  and  _604
REMARK  244  A    between atoms: _604  and  _605
REMARK  245  A    between atoms: _604  and  _607
REMARK  246  A    between atoms: _607  and  _608
REMARK  247  A    between atoms: _608  and  _609
REMARK  248  A    between atoms: _609  and  _610
REMARK  249  A    between atoms: _619  and  _621
REMARK  250  A    between atoms: _621  and  _622
REMARK  251  A    between atoms: _621  and  _624
REMARK  252  A    between atoms: _624  and  _625
REMARK  253  A    between atoms: _627  and  _629
REMARK  254  A    between atoms: _629  and  _630
REMARK  255  A    between atoms: _629  and  _632
REMARK  256  A    between atoms: _632  and  _633
REMARK  257  A    between atoms: _633  and  _634
REMARK  258  A    between atoms: _636  and  _638
REMARK  259  A    between atoms: _638  and  _639
REMARK  260  A    between atoms: _638  and  _641
REMARK  261  A    between atoms: _641  and  _642
REMARK  262  A    between atoms: _645  and  _647
REMARK  263  A    between atoms: _647  and  _648
REMARK  264  A    between atoms: _647  and  _650
REMARK  265  A    between atoms: _650  and  _651
REMARK  266  A    between atoms: _651  and  _652
REMARK  267  A    between atoms: _652  and  _653
REMARK  268  A    between atoms: _653  and  _654
REMARK  269  A    between atoms: _658  and  _660
REMARK  270  A    between atoms: _660  and  _661
REMARK  271  A    between atoms: _660  and  _663
REMARK  272  A    between atoms: _663  and  _664
REMARK  273  A    between atoms: _670  and  _671
REMARK  274  A    between atoms: _676  and  _678
REMARK  275  A    between atoms: _678  and  _679
REMARK  276  A    between atoms: _678  and  _681
REMARK  277  A    between atoms: _681  and  _682
REMARK  278  A    between atoms: _685  and  _687
REMARK  279  A    between atoms: _687  and  _688
REMARK  280  A    between atoms: _687  and  _690
REMARK  281  A    between atoms: _690  and  _691
REMARK  282  A    between atoms: _691  and  _692
REMARK  283  A    between atoms: _694  and  _696
REMARK  284  A    between atoms: _696  and  _697
REMARK  285  A    between atoms: _696  and  _699
REMARK  286  A    between atoms: _699  and  _700
REMARK  287  A    between atoms: _703  and  _705
REMARK  288  A    between atoms: _705  and  _706
REMARK  289  A    between atoms: _705  and  _708
REMARK  290  A    between atoms: _708  and  _709
REMARK  291  A    between atoms: _715  and  _717
REMARK  292  A    between atoms: _717  and  _718
REMARK  293  A    between atoms: _717  and  _720
REMARK  294  A    between atoms: _720  and  _721
REMARK  295  A    between atoms: _726  and  _728
REMARK  296  A    between atoms: _728  and  _729
REMARK  297  A    between atoms: _728  and  _731
REMARK  298  A    between atoms: _731  and  _732
REMARK  299  A    between atoms: _737  and  _739
REMARK  300  A    between atoms: _739  and  _740
REMARK  301  A    between atoms: _739  and  _742
REMARK  302  A    between atoms: _742  and  _743
REMARK  303  A    between atoms: _743  and  _755
REMARK  304  A    between atoms: _744  and  _746
REMARK  305  A    between atoms: _746  and  _747
REMARK  306  A    between atoms: _749  and  _751
REMARK  307  A    between atoms: _751  and  _752
REMARK  308  A    between atoms: _751  and  _754
REMARK  309  A    between atoms: _754  and  _755
REMARK  310  A    between atoms: _756  and  _758
REMARK  311  A    between atoms: _758  and  _759
REMARK  312  A    between atoms: _758  and  _761
REMARK  313  A    between atoms: _761  and  _762
REMARK  314  A    between atoms: _767  and  _769
REMARK  315  A    between atoms: _769  and  _770
REMARK  316  A    between atoms: _769  and  _772
REMARK  317  A    between atoms: _772  and  _773
REMARK  318  A    between atoms: _778  and  _779
REMARK  319  A    between atoms: _781  and  _783
REMARK  320  A    between atoms: _783  and  _784
REMARK  321  A    between atoms: _783  and  _786
REMARK  322  A    between atoms: _786  and  _787
REMARK                            x       y       z     vdW  Elec       q    Type
REMARK                         _______ _______ _______ _____ _____    ______ ____
ROOT
ATOM      1  O   HOH     1      14.607  23.964  18.843  0.00  0.00    +0.000 OA
ENDROOT
TORSDOF 0
REMARK  Name = ../refined-set-2016/1hn4/1hn4_pocket.pdb
REMARK  322 active torsions:
REMARK  status: ('A' for Active; 'I' for Inactive)
REMARK    1  A    between atoms: _1  and  _5
REMARK    2  A    between atoms: _5  and  _6
REMARK    3  A    between atoms: _8  and  _10
REMARK    4  A    between atoms: _10  and  _11
REMARK    5  A    between atoms: _10  and  _13
REMARK    6  A    between atoms: _13  and  _14
REMARK    7  A    between atoms: _17  and  _19
REMARK    8  A    between atoms: _19  and  _20
REMARK    9  A    between atoms: _19  and  _22
REMARK   10  A    between atoms: _22  and  _23
REMARK   11  A    between atoms: _25  and  _27
REMARK   12  A    between atoms: _27  and  _28
REMARK   13  A    between atoms: _27  and  _30
REMARK   14  A    between atoms: _30  and  _31
REMARK   15  A    between atoms: _33  and  _35
REMARK   16  A    between atoms: _35  and  _36
REMARK   17  A    between atoms: _35  and  _38
REMARK   18  A    between atoms: _38  and  _39
REMARK   19  A    between atoms: _39  and  _40
REMARK   20  A    between atoms: _40  and  _41
REMARK   21  A    between atoms: _50  and  _52
REMARK   22  A    between atoms: _52  and  _53
REMARK   23  A    between atoms: _56  and  _58
REMARK   24  A    between atoms: _58  and  _59
REMARK   25  A    between atoms: _58  and  _61
REMARK   26  A    between atoms: _61  and  _62
REMARK   27  A    between atoms: _65  and  _67
REMARK   28  A    between atoms: _67  and  _68
REMARK   29  A    between atoms: _67  and  _70
REMARK   30  A    between atoms: _70  and  _71
REMARK   31  A    between atoms: _81  and  _83
REMARK   32  A    between atoms: _83  and  _84
REMARK   33  A    between atoms: _83  and  _86
REMARK   34  A    between atoms: _86  and  _87
REMARK   35  A    between atoms: _87  and  _88
REMARK   36  A    between atoms: _93  and  _95
REMARK   37  A    between atoms: _95  and  _96
REMARK   38  A    between atoms: _95  and  _98
REMARK   39  A    between atoms: _98  and  _99
REMARK   40  A    between atoms: _105  and  _107
REMARK   41  A    between atoms: _107  and  _108
REMARK   42  A    between atoms: _107  and  _110
REMARK   43  A    between atoms: _110  and  _111
REMARK   44  A    between atoms: _111  and  _112
REMARK   45  A    between atoms: _112  and  _113
REMARK   46  A    between atoms: _122  and  _124
REMARK   47  A    between atoms: _124  and  _125
REMARK   48  A    between atoms: _124  and  _127
REMARK   49  A    between atoms: _127  and  _128
REMARK   50  A    between atoms: _130  and  _132
REMARK   51  A    between atoms: _132  and  _133
REMARK   52  A    between atoms: _132  and  _135
REMARK   53  A    between atoms: _135  and  _136
REMARK   54  A    between atoms: _136  and  _137
REMARK   55  A    between atoms: _139  and  _141
REMARK   56  A    between atoms: _141  and  _142
REMARK   57  A    between atoms: _141  and  _144
REMARK   58  A    between atoms: _144  and  _145
REMARK   59  A    between atoms: _148  and  _150
REMARK   60  A    between atoms: _150  and  _151
REMARK   61  A    between atoms: _150  and  _153
REMARK   62  A    between atoms: _153  and  _154
REMARK   63  A    between atoms: _154  and  _155
REMARK   64  A    between atoms: _155  and  _156
REMARK   65  A    between atoms: _156  and  _157
REMARK   66  A    between atoms: _161  and  _163
REMARK   67  A    between atoms: _163  and  _164
REMARK   68  A    between atoms: _163  and  _166
REMARK   69  A    between atoms: _166  and  _167
REMARK   70  A    between atoms: _173  and  _174
REMARK   71  A    between atoms: _179  and  _181
REMARK   72  A    between atoms: _181  and  _182
REMARK   73  A    between atoms: _181  and  _184
REMARK   74  A    between atoms: _184  and  _185
REMARK   75  A    between atoms: _188  and  _190
REMARK   76  A    between atoms: _190  and  _191
REMARK   77  A    between atoms: _190  and  _193
REMARK   78  A    between atoms: _193  and  _194
REMARK   79  A    between atoms: _194  and  _195
REMARK   80  A    between atoms: _197  and  _199
REMARK   81  A    between atoms: _199  and  _200
REMARK   82  A    between atoms: _199  and  _202
REMARK   83  A    between atoms: _202  and  _203
REMARK   84  A    between atoms: _206  and  _208
REMARK   85  A    between atoms: _208  and  _209
REMARK   86  A    between atoms: _208  and  _211
REMARK   87  A    between atoms: _211  and  _212
REMARK   88  A    between atoms: _218  and  _220
REMARK   89  A    between atoms: _220  and  _221
REMARK   90  A    between atoms: _220  and  _223
REMARK   91  A    between atoms: _223  and  _224
REMARK   92  A    between atoms: _229  and  _231
REMARK   93  A    between atoms: _231  and  _232
REMARK   94  A    between atoms: _231  and  _234
REMARK   95  A    between atoms: _234  and  _235
REMARK   96  A    between atoms: _240  and  _242
REMARK   97  A    between atoms: _242  and  _243
REMARK   98  A    between atoms: _242  and  _245
REMARK   99  A    between atoms: _245  and  _246
REMARK  100  A    between atoms: _251  and  _252
REMARK  101  A    between atoms: _254  and  _256
REMARK  102  A    between atoms: _256  and  _257
REMARK  103  A    between atoms: _256  and  _259
REMARK  104  A    between atoms: _261  and  _263
REMARK  105  A    between atoms: _263  and  _264
REMARK  106  A    between atoms: _263  and  _266
REMARK  107  A    between atoms: _266  and  _267
REMARK  108  A    between atoms: _272  and  _273
REMARK  109  A    between atoms: _277  and  _280
REMARK  110  A    between atoms: _280  and  _281
REMARK  111  A    between atoms: _281  and  _354
REMARK  112  A    between atoms: _285  and  _287
REMARK  113  A    between atoms: _287  and  _289
REMARK  114  A    between atoms: _289  and  _290
REMARK  115  A    between atoms: _289  and  _292
REMARK  116  A    between atoms: _292  and  _293
REMARK  117  A    between atoms: _296  and  _298
REMARK  118  A    between atoms: _298  and  _299
REMARK  119  A    between atoms: _301  and  _303
REMARK  120  A    between atoms: _303  and  _304
REMARK  121  A    between atoms: _306  and  _308
REMARK  122  A    between atoms: _308  and  _309
REMARK  123  A    between atoms: _308  and  _311
REMARK  124  A    between atoms: _311  and  _312
REMARK  125  A    between atoms: _315  and  _317
REMARK  126  A    between atoms: _317  and  _318
REMARK  127  A    between atoms: _317  and  _320
REMARK  128  A    between atoms: _320  and  _321
REMARK  129  A    between atoms: _324  and  _326
REMARK  130  A    between atoms: _326  and  _327
REMARK  131  A    between atoms: _326  and  _329
REMARK  132  A    between atoms: _329  and  _330
REMARK  133  A    between atoms: _330  and  _331
REMARK  134  A    between atoms: _331  and  _332
REMARK  135  A    between atoms: _341  and  _343
REMARK  136  A    between atoms: _343  and  _344
REMARK  137  A    between atoms: _343  and  _346
REMARK  138  A    between atoms: _348  and  _350
REMARK  139  A    between atoms: _350  and  _351
REMARK  140  A    between atoms: _350  and  _353
REMARK  141  A    between atoms: _353  and  _354
REMARK  142  A    between atoms: _355  and  _357
REMARK  143  A    between atoms: _357  and  _358
REMARK  144  A    between atoms: _357  and  _360
REMARK  145  A    between atoms: _360  and  _361
REMARK  146  A    between atoms: _361  and  _362
REMARK  147  A    between atoms: _365  and  _367
REMARK  148  A    between atoms: _367  and  _368
REMARK  149  A    between atoms: _367  and  _370
REMARK  150  A    between atoms: _370  and  _371
REMARK  151  A    between atoms: _374  and  _376
REMARK  152  A    between atoms: _376  and  _377
REMARK  153  A    between atoms: _376  and  _379
REMARK  154  A    between atoms: _379  and  _380
REMARK  155  A    between atoms: _385  and  _387
REMARK  156  A    between atoms: _387  and  _388
REMARK  157  A    between atoms: _387  and  _390
REMARK  158  A    between atoms: _390  and  _391
REMARK  159  A    between atoms: _394  and  _396
REMARK  160  A    between atoms: _396  and  _397
REMARK  161  A    between atoms: _396  and  _399
REMARK  162  A    between atoms: _399  and  _400
REMARK  163  A    between atoms: _405  and  _407
REMARK  164  A    between atoms: _407  and  _408
REMARK  165  A    between atoms: _407  and  _410
REMARK  166  A    between atoms: _410  and  _411
REMARK  167  A    between atoms: _411  and  _480
REMARK  168  A    between atoms: _412  and  _414
REMARK  169  A    between atoms: _414  and  _415
REMARK  170  A    between atoms: _414  and  _417
REMARK  171  A    between atoms: _417  and  _418
REMARK  172  A    between atoms: _423  and  _424
REMARK  173  A    between atoms: _426  and  _428
REMARK  174  A    between atoms: _428  and  _429
REMARK  175  A    between atoms: _428  and  _431
REMARK  176  A    between atoms: _431  and  _432
REMARK  177  A    between atoms: _432  and  _433
REMARK  178  A    between atoms: _433  and  _434
REMARK  179  A    between atoms: _443  and  _445
REMARK  180  A    between atoms: _445  and  _446
REMARK  181  A    between atoms: _445  and  _448
REMARK  182  A    between atoms: _448  and  _449
REMARK  183  A    between atoms: _452  and  _454
REMARK  184  A    between atoms: _454  and  _455
REMARK  185  A    between atoms: _454  and  _457
REMARK  186  A    between atoms: _457  and  _458
REMARK  187  A    between atoms: _458  and  _459
REMARK  188  A    between atoms: _459  and  _460
REMARK  189  A    between atoms: _460  and  _461
REMARK  190  A    between atoms: _465  and  _467
REMARK  191  A    between atoms: _467  and  _468
REMARK  192  A    between atoms: _467  and  _470
REMARK  193  A    between atoms: _470  and  _471
REMARK  194  A    between atoms: _474  and  _476
REMARK  195  A    between atoms: _476  and  _477
REMARK  196  A    between atoms: _476  and  _479
REMARK  197  A    between atoms: _479  and  _480
REMARK  198  A    between atoms: _481  and  _483
REMARK  199  A    between atoms: _483  and  _484
REMARK  200  A    between atoms: _483  and  _486
REMARK  201  A    between atoms: _486  and  _487
REMARK  202  A    between atoms: _490  and  _492
REMARK  203  A    between atoms: _492  and  _493
REMARK  204  A    between atoms: _496  and  _498
REMARK  205  A    between atoms: _498  and  _499
REMARK  206  A    between atoms: _502  and  _504
REMARK  207  A    between atoms: _504  and  _505
REMARK  208  A    between atoms: _504  and  _507
REMARK  209  A    between atoms: _507  and  _508
REMARK  210  A    between atoms: _514  and  _516
REMARK  211  A    between atoms: _516  and  _517
REMARK  212  A    between atoms: _516  and  _519
REMARK  213  A    between atoms: _519  and  _520
REMARK  214  A    between atoms: _522  and  _524
REMARK  215  A    between atoms: _524  and  _525
REMARK  216  A    between atoms: _524  and  _527
REMARK  217  A    between atoms: _527  and  _528
REMARK  218  A    between atoms: _530  and  _532
REMARK  219  A    between atoms: _532  and  _533
REMARK  220  A    between atoms: _532  and  _535
REMARK  221  A    between atoms: _535  and  _536
REMARK  222  A    between atoms: _536  and  _537
REMARK  223  A    between atoms: _537  and  _538
REMARK  224  A    between atoms: _547  and  _549
REMARK  225  A    between atoms: _549  and  _550
REMARK  226  A    between atoms: _553  and  _555
REMARK  227  A    between atoms: _555  and  _556
REMARK  228  A    between atoms: _555  and  _558
REMARK  229  A    between atoms: _558  and  _559
REMARK  230  A    between atoms: _562  and  _564
REMARK  231  A    between atoms: _564  and  _565
REMARK  232  A    between atoms: _564  and  _567
REMARK  233  A    between atoms: _567  and  _568
REMARK  234  A    between atoms: _578  and  _580
REMARK  235  A    between atoms: _580  and  _581
REMARK  236  A    between atoms: _580  and  _583
REMARK  237  A    between atoms: _583  and  _584
REMARK  238  A    between atoms: _584  and  _585
REMARK  239  A    between atoms: _590  and  _592
REMARK  240  A    between atoms: _592  and  _593
REMARK  241  A    between atoms: _592  and  _595
REMARK  242  A    between atoms: _595  and  _596
REMARK  243  A    between atoms: _602  and  _604
REMARK  244  A    between atoms: _604  and  _605
REMARK  245  A    between atoms: _604  and  _607
REMARK  246  A    between atoms: _607  and  _608
REMARK  247  A    between atoms: _608  and  _609
REMARK  248  A    between atoms: _609  and  _610
REMARK  249  A    between atoms: _619  and  _621
REMARK  250  A    between atoms: _621  and  _622
REMARK  251  A    between atoms: _621  and  _624
REMARK  252  A    between atoms: _624  and  _625
REMARK  253  A    between atoms: _627  and  _629
REMARK  254  A    between atoms: _629  and  _630
REMARK  255  A    between atoms: _629  and  _632
REMARK  256  A    between atoms: _632  and  _633
REMARK  257  A    between atoms: _633  and  _634
REMARK  258  A    between atoms: _636  and  _638
REMARK  259  A    between atoms: _638  and  _639
REMARK  260  A    between atoms: _638  and  _641
REMARK  261  A    between atoms: _641  and  _642
REMARK  262  A    between atoms: _645  and  _647
REMARK  263  A    between atoms: _647  and  _648
REMARK  264  A    between atoms: _647  and  _650
REMARK  265  A    between atoms: _650  and  _651
REMARK  266  A    between atoms: _651  and  _652
REMARK  267  A    between atoms: _652  and  _653
REMARK  268  A    between atoms: _653  and  _654
REMARK  269  A    between atoms: _658  and  _660
REMARK  270  A    between atoms: _660  and  _661
REMARK  271  A    between atoms: _660  and  _663
REMARK  272  A    between atoms: _663  and  _664
REMARK  273  A    between atoms: _670  and  _671
REMARK  274  A    between atoms: _676  and  _678
REMARK  275  A    between atoms: _678  and  _679
REMARK  276  A    between atoms: _678  and  _681
REMARK  277  A    between atoms: _681  and  _682
REMARK  278  A    between atoms: _685  and  _687
REMARK  279  A    between atoms: _687  and  _688
REMARK  280  A    between atoms: _687  and  _690
REMARK  281  A    between atoms: _690  and  _691
REMARK  282  A    between atoms: _691  and  _692
REMARK  283  A    between atoms: _694  and  _696
REMARK  284  A    between atoms: _696  and  _697
REMARK  285  A    between atoms: _696  and  _699
REMARK  286  A    between atoms: _699  and  _700
REMARK  287  A    between atoms: _703  and  _705
REMARK  288  A    between atoms: _705  and  _706
REMARK  289  A    between atoms: _705  and  _708
REMARK  290  A    between atoms: _708  and  _709
REMARK  291  A    between atoms: _715  and  _717
REMARK  292  A    between atoms: _717  and  _718
REMARK  293  A    between atoms: _717  and  _720
REMARK  294  A    between atoms: _720  and  _721
REMARK  295  A    between atoms: _726  and  _728
REMARK  296  A    between atoms: _728  and  _729
REMARK  297  A    between atoms: _728  and  _731
REMARK  298  A    between atoms: _731  and  _732
REMARK  299  A    between atoms: _737  and  _739
REMARK  300  A    between atoms: _739  and  _740
REMARK  301  A    between atoms: _739  and  _742
REMARK  302  A    between atoms: _742  and  _743
REMARK  303  A    between atoms: _743  and  _755
REMARK  304  A    between atoms: _744  and  _746
REMARK  305  A    between atoms: _746  and  _747
REMARK  306  A    between atoms: _749  and  _751
REMARK  307  A    between atoms: _751  and  _752
REMARK  308  A    between atoms: _751  and  _754
REMARK  309  A    between atoms: _754  and  _755
REMARK  310  A    between atoms: _756  and  _758
REMARK  311  A    between atoms: _758  and  _759
REMARK  312  A    between atoms: _758  and  _761
REMARK  313  A    between atoms: _761  and  _762
REMARK  314  A    between atoms: _767  and  _769
REMARK  315  A    between atoms: _769  and  _770
REMARK  316  A    between atoms: _769  and  _772
REMARK  317  A    between atoms: _772  and  _773
REMARK  318  A    between atoms: _778  and  _779
REMARK  319  A    between atoms: _781  and  _783
REMARK  320  A    between atoms: _783  and  _784
REMARK  321  A    between atoms: _783  and  _786
REMARK  322  A    between atoms: _786  and  _787
REMARK                            x       y       z     vdW  Elec       q    Type
REMARK                         _______ _______ _______ _____ _____    ______ ____
ROOT
ATOM      1  O   HOH     1      21.129  12.324   8.853  0.00  0.00    +0.000 OA
ENDROOT
TORSDOF 0
REMARK  Name = ../refined-set-2016/1hn4/1hn4_pocket.pdb
REMARK  322 active torsions:
REMARK  status: ('A' for Active; 'I' for Inactive)
REMARK    1  A    between atoms: _1  and  _5
REMARK    2  A    between atoms: _5  and  _6
REMARK    3  A    between atoms: _8  and  _10
REMARK    4  A    between atoms: _10  and  _11
REMARK    5  A    between atoms: _10  and  _13
REMARK    6  A    between atoms: _13  and  _14
REMARK    7  A    between atoms: _17  and  _19
REMARK    8  A    between atoms: _19  and  _20
REMARK    9  A    between atoms: _19  and  _22
REMARK   10  A    between atoms: _22  and  _23
REMARK   11  A    between atoms: _25  and  _27
REMARK   12  A    between atoms: _27  and  _28
REMARK   13  A    between atoms: _27  and  _30
REMARK   14  A    between atoms: _30  and  _31
REMARK   15  A    between atoms: _33  and  _35
REMARK   16  A    between atoms: _35  and  _36
REMARK   17  A    between atoms: _35  and  _38
REMARK   18  A    between atoms: _38  and  _39
REMARK   19  A    between atoms: _39  and  _40
REMARK   20  A    between atoms: _40  and  _41
REMARK   21  A    between atoms: _50  and  _52
REMARK   22  A    between atoms: _52  and  _53
REMARK   23  A    between atoms: _56  and  _58
REMARK   24  A    between atoms: _58  and  _59
REMARK   25  A    between atoms: _58  and  _61
REMARK   26  A    between atoms: _61  and  _62
REMARK   27  A    between atoms: _65  and  _67
REMARK   28  A    between atoms: _67  and  _68
REMARK   29  A    between atoms: _67  and  _70
REMARK   30  A    between atoms: _70  and  _71
REMARK   31  A    between atoms: _81  and  _83
REMARK   32  A    between atoms: _83  and  _84
REMARK   33  A    between atoms: _83  and  _86
REMARK   34  A    between atoms: _86  and  _87
REMARK   35  A    between atoms: _87  and  _88
REMARK   36  A    between atoms: _93  and  _95
REMARK   37  A    between atoms: _95  and  _96
REMARK   38  A    between atoms: _95  and  _98
REMARK   39  A    between atoms: _98  and  _99
REMARK   40  A    between atoms: _105  and  _107
REMARK   41  A    between atoms: _107  and  _108
REMARK   42  A    between atoms: _107  and  _110
REMARK   43  A    between atoms: _110  and  _111
REMARK   44  A    between atoms: _111  and  _112
REMARK   45  A    between atoms: _112  and  _113
REMARK   46  A    between atoms: _122  and  _124
REMARK   47  A    between atoms: _124  and  _125
REMARK   48  A    between atoms: _124  and  _127
REMARK   49  A    between atoms: _127  and  _128
REMARK   50  A    between atoms: _130  and  _132
REMARK   51  A    between atoms: _132  and  _133
REMARK   52  A    between atoms: _132  and  _135
REMARK   53  A    between atoms: _135  and  _136
REMARK   54  A    between atoms: _136  and  _137
REMARK   55  A    between atoms: _139  and  _141
REMARK   56  A    between atoms: _141  and  _142
REMARK   57  A    between atoms: _141  and  _144
REMARK   58  A    between atoms: _144  and  _145
REMARK   59  A    between atoms: _148  and  _150
REMARK   60  A    between atoms: _150  and  _151
REMARK   61  A    between atoms: _150  and  _153
REMARK   62  A    between atoms: _153  and  _154
REMARK   63  A    between atoms: _154  and  _155
REMARK   64  A    between atoms: _155  and  _156
REMARK   65  A    between atoms: _156  and  _157
REMARK   66  A    between atoms: _161  and  _163
REMARK   67  A    between atoms: _163  and  _164
REMARK   68  A    between atoms: _163  and  _166
REMARK   69  A    between atoms: _166  and  _167
REMARK   70  A    between atoms: _173  and  _174
REMARK   71  A    between atoms: _179  and  _181
REMARK   72  A    between atoms: _181  and  _182
REMARK   73  A    between atoms: _181  and  _184
REMARK   74  A    between atoms: _184  and  _185
REMARK   75  A    between atoms: _188  and  _190
REMARK   76  A    between atoms: _190  and  _191
REMARK   77  A    between atoms: _190  and  _193
REMARK   78  A    between atoms: _193  and  _194
REMARK   79  A    between atoms: _194  and  _195
REMARK   80  A    between atoms: _197  and  _199
REMARK   81  A    between atoms: _199  and  _200
REMARK   82  A    between atoms: _199  and  _202
REMARK   83  A    between atoms: _202  and  _203
REMARK   84  A    between atoms: _206  and  _208
REMARK   85  A    between atoms: _208  and  _209
REMARK   86  A    between atoms: _208  and  _211
REMARK   87  A    between atoms: _211  and  _212
REMARK   88  A    between atoms: _218  and  _220
REMARK   89  A    between atoms: _220  and  _221
REMARK   90  A    between atoms: _220  and  _223
REMARK   91  A    between atoms: _223  and  _224
REMARK   92  A    between atoms: _229  and  _231
REMARK   93  A    between atoms: _231  and  _232
REMARK   94  A    between atoms: _231  and  _234
REMARK   95  A    between atoms: _234  and  _235
REMARK   96  A    between atoms: _240  and  _242
REMARK   97  A    between atoms: _242  and  _243
REMARK   98  A    between atoms: _242  and  _245
REMARK   99  A    between atoms: _245  and  _246
REMARK  100  A    between atoms: _251  and  _252
REMARK  101  A    between atoms: _254  and  _256
REMARK  102  A    between atoms: _256  and  _257
REMARK  103  A    between atoms: _256  and  _259
REMARK  104  A    between atoms: _261  and  _263
REMARK  105  A    between atoms: _263  and  _264
REMARK  106  A    between atoms: _263  and  _266
REMARK  107  A    between atoms: _266  and  _267
REMARK  108  A    between atoms: _272  and  _273
REMARK  109  A    between atoms: _277  and  _280
REMARK  110  A    between atoms: _280  and  _281
REMARK  111  A    between atoms: _281  and  _354
REMARK  112  A    between atoms: _285  and  _287
REMARK  113  A    between atoms: _287  and  _289
REMARK  114  A    between atoms: _289  and  _290
REMARK  115  A    between atoms: _289  and  _292
REMARK  116  A    between atoms: _292  and  _293
REMARK  117  A    between atoms: _296  and  _298
REMARK  118  A    between atoms: _298  and  _299
REMARK  119  A    between atoms: _301  and  _303
REMARK  120  A    between atoms: _303  and  _304
REMARK  121  A    between atoms: _306  and  _308
REMARK  122  A    between atoms: _308  and  _309
REMARK  123  A    between atoms: _308  and  _311
REMARK  124  A    between atoms: _311  and  _312
REMARK  125  A    between atoms: _315  and  _317
REMARK  126  A    between atoms: _317  and  _318
REMARK  127  A    between atoms: _317  and  _320
REMARK  128  A    between atoms: _320  and  _321
REMARK  129  A    between atoms: _324  and  _326
REMARK  130  A    between atoms: _326  and  _327
REMARK  131  A    between atoms: _326  and  _329
REMARK  132  A    between atoms: _329  and  _330
REMARK  133  A    between atoms: _330  and  _331
REMARK  134  A    between atoms: _331  and  _332
REMARK  135  A    between atoms: _341  and  _343
REMARK  136  A    between atoms: _343  and  _344
REMARK  137  A    between atoms: _343  and  _346
REMARK  138  A    between atoms: _348  and  _350
REMARK  139  A    between atoms: _350  and  _351
REMARK  140  A    between atoms: _350  and  _353
REMARK  141  A    between atoms: _353  and  _354
REMARK  142  A    between atoms: _355  and  _357
REMARK  143  A    between atoms: _357  and  _358
REMARK  144  A    between atoms: _357  and  _360
REMARK  145  A    between atoms: _360  and  _361
REMARK  146  A    between atoms: _361  and  _362
REMARK  147  A    between atoms: _365  and  _367
REMARK  148  A    between atoms: _367  and  _368
REMARK  149  A    between atoms: _367  and  _370
REMARK  150  A    between atoms: _370  and  _371
REMARK  151  A    between atoms: _374  and  _376
REMARK  152  A    between atoms: _376  and  _377
REMARK  153  A    between atoms: _376  and  _379
REMARK  154  A    between atoms: _379  and  _380
REMARK  155  A    between atoms: _385  and  _387
REMARK  156  A    between atoms: _387  and  _388
REMARK  157  A    between atoms: _387  and  _390
REMARK  158  A    between atoms: _390  and  _391
REMARK  159  A    between atoms: _394  and  _396
REMARK  160  A    between atoms: _396  and  _397
REMARK  161  A    between atoms: _396  and  _399
REMARK  162  A    between atoms: _399  and  _400
REMARK  163  A    between atoms: _405  and  _407
REMARK  164  A    between atoms: _407  and  _408
REMARK  165  A    between atoms: _407  and  _410
REMARK  166  A    between atoms: _410  and  _411
REMARK  167  A    between atoms: _411  and  _480
REMARK  168  A    between atoms: _412  and  _414
REMARK  169  A    between atoms: _414  and  _415
REMARK  170  A    between atoms: _414  and  _417
REMARK  171  A    between atoms: _417  and  _418
REMARK  172  A    between atoms: _423  and  _424
REMARK  173  A    between atoms: _426  and  _428
REMARK  174  A    between atoms: _428  and  _429
REMARK  175  A    between atoms: _428  and  _431
REMARK  176  A    between atoms: _431  and  _432
REMARK  177  A    between atoms: _432  and  _433
REMARK  178  A    between atoms: _433  and  _434
REMARK  179  A    between atoms: _443  and  _445
REMARK  180  A    between atoms: _445  and  _446
REMARK  181  A    between atoms: _445  and  _448
REMARK  182  A    between atoms: _448  and  _449
REMARK  183  A    between atoms: _452  and  _454
REMARK  184  A    between atoms: _454  and  _455
REMARK  185  A    between atoms: _454  and  _457
REMARK  186  A    between atoms: _457  and  _458
REMARK  187  A    between atoms: _458  and  _459
REMARK  188  A    between atoms: _459  and  _460
REMARK  189  A    between atoms: _460  and  _461
REMARK  190  A    between atoms: _465  and  _467
REMARK  191  A    between atoms: _467  and  _468
REMARK  192  A    between atoms: _467  and  _470
REMARK  193  A    between atoms: _470  and  _471
REMARK  194  A    between atoms: _474  and  _476
REMARK  195  A    between atoms: _476  and  _477
REMARK  196  A    between atoms: _476  and  _479
REMARK  197  A    between atoms: _479  and  _480
REMARK  198  A    between atoms: _481  and  _483
REMARK  199  A    between atoms: _483  and  _484
REMARK  200  A    between atoms: _483  and  _486
REMARK  201  A    between atoms: _486  and  _487
REMARK  202  A    between atoms: _490  and  _492
REMARK  203  A    between atoms: _492  and  _493
REMARK  204  A    between atoms: _496  and  _498
REMARK  205  A    between atoms: _498  and  _499
REMARK  206  A    between atoms: _502  and  _504
REMARK  207  A    between atoms: _504  and  _505
REMARK  208  A    between atoms: _504  and  _507
REMARK  209  A    between atoms: _507  and  _508
REMARK  210  A    between atoms: _514  and  _516
REMARK  211  A    between atoms: _516  and  _517
REMARK  212  A    between atoms: _516  and  _519
REMARK  213  A    between atoms: _519  and  _520
REMARK  214  A    between atoms: _522  and  _524
REMARK  215  A    between atoms: _524  and  _525
REMARK  216  A    between atoms: _524  and  _527
REMARK  217  A    between atoms: _527  and  _528
REMARK  218  A    between atoms: _530  and  _532
REMARK  219  A    between atoms: _532  and  _533
REMARK  220  A    between atoms: _532  and  _535
REMARK  221  A    between atoms: _535  and  _536
REMARK  222  A    between atoms: _536  and  _537
REMARK  223  A    between atoms: _537  and  _538
REMARK  224  A    between atoms: _547  and  _549
REMARK  225  A    between atoms: _549  and  _550
REMARK  226  A    between atoms: _553  and  _555
REMARK  227  A    between atoms: _555  and  _556
REMARK  228  A    between atoms: _555  and  _558
REMARK  229  A    between atoms: _558  and  _559
REMARK  230  A    between atoms: _562  and  _564
REMARK  231  A    between atoms: _564  and  _565
REMARK  232  A    between atoms: _564  and  _567
REMARK  233  A    between atoms: _567  and  _568
REMARK  234  A    between atoms: _578  and  _580
REMARK  235  A    between atoms: _580  and  _581
REMARK  236  A    between atoms: _580  and  _583
REMARK  237  A    between atoms: _583  and  _584
REMARK  238  A    between atoms: _584  and  _585
REMARK  239  A    between atoms: _590  and  _592
REMARK  240  A    between atoms: _592  and  _593
REMARK  241  A    between atoms: _592  and  _595
REMARK  242  A    between atoms: _595  and  _596
REMARK  243  A    between atoms: _602  and  _604
REMARK  244  A    between atoms: _604  and  _605
REMARK  245  A    between atoms: _604  and  _607
REMARK  246  A    between atoms: _607  and  _608
REMARK  247  A    between atoms: _608  and  _609
REMARK  248  A    between atoms: _609  and  _610
REMARK  249  A    between atoms: _619  and  _621
REMARK  250  A    between atoms: _621  and  _622
REMARK  251  A    between atoms: _621  and  _624
REMARK  252  A    between atoms: _624  and  _625
REMARK  253  A    between atoms: _627  and  _629
REMARK  254  A    between atoms: _629  and  _630
REMARK  255  A    between atoms: _629  and  _632
REMARK  256  A    between atoms: _632  and  _633
REMARK  257  A    between atoms: _633  and  _634
REMARK  258  A    between atoms: _636  and  _638
REMARK  259  A    between atoms: _638  and  _639
REMARK  260  A    between atoms: _638  and  _641
REMARK  261  A    between atoms: _641  and  _642
REMARK  262  A    between atoms: _645  and  _647
REMARK  263  A    between atoms: _647  and  _648
REMARK  264  A    between atoms: _647  and  _650
REMARK  265  A    between atoms: _650  and  _651
REMARK  266  A    between atoms: _651  and  _652
REMARK  267  A    between atoms: _652  and  _653
REMARK  268  A    between atoms: _653  and  _654
REMARK  269  A    between atoms: _658  and  _660
REMARK  270  A    between atoms: _660  and  _661
REMARK  271  A    between atoms: _660  and  _663
REMARK  272  A    between atoms: _663  and  _664
REMARK  273  A    between atoms: _670  and  _671
REMARK  274  A    between atoms: _676  and  _678
REMARK  275  A    between atoms: _678  and  _679
REMARK  276  A    between atoms: _678  and  _681
REMARK  277  A    between atoms: _681  and  _682
REMARK  278  A    between atoms: _685  and  _687
REMARK  279  A    between atoms: _687  and  _688
REMARK  280  A    between atoms: _687  and  _690
REMARK  281  A    between atoms: _690  and  _691
REMARK  282  A    between atoms: _691  and  _692
REMARK  283  A    between atoms: _694  and  _696
REMARK  284  A    between atoms: _696  and  _697
REMARK  285  A    between atoms: _696  and  _699
REMARK  286  A    between atoms: _699  and  _700
REMARK  287  A    between atoms: _703  and  _705
REMARK  288  A    between atoms: _705  and  _706
REMARK  289  A    between atoms: _705  and  _708
REMARK  290  A    between atoms: _708  and  _709
REMARK  291  A    between atoms: _715  and  _717
REMARK  292  A    between atoms: _717  and  _718
REMARK  293  A    between atoms: _717  and  _720
REMARK  294  A    between atoms: _720  and  _721
REMARK  295  A    between atoms: _726  and  _728
REMARK  296  A    between atoms: _728  and  _729
REMARK  297  A    between atoms: _728  and  _731
REMARK  298  A    between atoms: _731  and  _732
REMARK  299  A    between atoms: _737  and  _739
REMARK  300  A    between atoms: _739  and  _740
REMARK  301  A    between atoms: _739  and  _742
REMARK  302  A    between atoms: _742  and  _743
REMARK  303  A    between atoms: _743  and  _755
REMARK  304  A    between atoms: _744  and  _746
REMARK  305  A    between atoms: _746  and  _747
REMARK  306  A    between atoms: _749  and  _751
REMARK  307  A    between atoms: _751  and  _752
REMARK  308  A    between atoms: _751  and  _754
REMARK  309  A    between atoms: _754  and  _755
REMARK  310  A    between atoms: _756  and  _758
REMARK  311  A    between atoms: _758  and  _759
REMARK  312  A    between atoms: _758  and  _761
REMARK  313  A    between atoms: _761  and  _762
REMARK  314  A    between atoms: _767  and  _769
REMARK  315  A    between atoms: _769  and  _770
REMARK  316  A    between atoms: _769  and  _772
REMARK  317  A    between atoms: _772  and  _773
REMARK  318  A    between atoms: _778  and  _779
REMARK  319  A    between atoms: _781  and  _783
REMARK  320  A    between atoms: _783  and  _784
REMARK  321  A    between atoms: _783  and  _786
REMARK  322  A    between atoms: _786  and  _787
REMARK                            x       y       z     vdW  Elec       q    Type
REMARK                         _______ _______ _______ _____ _____    ______ ____
ROOT
ATOM      1  O   HOH     1      17.088   8.096   8.850  0.00  0.00    +0.000 OA
ENDROOT
TORSDOF 0
REMARK  Name = ../refined-set-2016/1hn4/1hn4_pocket.pdb
REMARK  322 active torsions:
REMARK  status: ('A' for Active; 'I' for Inactive)
REMARK    1  A    between atoms: _1  and  _5
REMARK    2  A    between atoms: _5  and  _6
REMARK    3  A    between atoms: _8  and  _10
REMARK    4  A    between atoms: _10  and  _11
REMARK    5  A    between atoms: _10  and  _13
REMARK    6  A    between atoms: _13  and  _14
REMARK    7  A    between atoms: _17  and  _19
REMARK    8  A    between atoms: _19  and  _20
REMARK    9  A    between atoms: _19  and  _22
REMARK   10  A    between atoms: _22  and  _23
REMARK   11  A    between atoms: _25  and  _27
REMARK   12  A    between atoms: _27  and  _28
REMARK   13  A    between atoms: _27  and  _30
REMARK   14  A    between atoms: _30  and  _31
REMARK   15  A    between atoms: _33  and  _35
REMARK   16  A    between atoms: _35  and  _36
REMARK   17  A    between atoms: _35  and  _38
REMARK   18  A    between atoms: _38  and  _39
REMARK   19  A    between atoms: _39  and  _40
REMARK   20  A    between atoms: _40  and  _41
REMARK   21  A    between atoms: _50  and  _52
REMARK   22  A    between atoms: _52  and  _53
REMARK   23  A    between atoms: _56  and  _58
REMARK   24  A    between atoms: _58  and  _59
REMARK   25  A    between atoms: _58  and  _61
REMARK   26  A    between atoms: _61  and  _62
REMARK   27  A    between atoms: _65  and  _67
REMARK   28  A    between atoms: _67  and  _68
REMARK   29  A    between atoms: _67  and  _70
REMARK   30  A    between atoms: _70  and  _71
REMARK   31  A    between atoms: _81  and  _83
REMARK   32  A    between atoms: _83  and  _84
REMARK   33  A    between atoms: _83  and  _86
REMARK   34  A    between atoms: _86  and  _87
REMARK   35  A    between atoms: _87  and  _88
REMARK   36  A    between atoms: _93  and  _95
REMARK   37  A    between atoms: _95  and  _96
REMARK   38  A    between atoms: _95  and  _98
REMARK   39  A    between atoms: _98  and  _99
REMARK   40  A    between atoms: _105  and  _107
REMARK   41  A    between atoms: _107  and  _108
REMARK   42  A    between atoms: _107  and  _110
REMARK   43  A    between atoms: _110  and  _111
REMARK   44  A    between atoms: _111  and  _112
REMARK   45  A    between atoms: _112  and  _113
REMARK   46  A    between atoms: _122  and  _124
REMARK   47  A    between atoms: _124  and  _125
REMARK   48  A    between atoms: _124  and  _127
REMARK   49  A    between atoms: _127  and  _128
REMARK   50  A    between atoms: _130  and  _132
REMARK   51  A    between atoms: _132  and  _133
REMARK   52  A    between atoms: _132  and  _135
REMARK   53  A    between atoms: _135  and  _136
REMARK   54  A    between atoms: _136  and  _137
REMARK   55  A    between atoms: _139  and  _141
REMARK   56  A    between atoms: _141  and  _142
REMARK   57  A    between atoms: _141  and  _144
REMARK   58  A    between atoms: _144  and  _145
REMARK   59  A    between atoms: _148  and  _150
REMARK   60  A    between atoms: _150  and  _151
REMARK   61  A    between atoms: _150  and  _153
REMARK   62  A    between atoms: _153  and  _154
REMARK   63  A    between atoms: _154  and  _155
REMARK   64  A    between atoms: _155  and  _156
REMARK   65  A    between atoms: _156  and  _157
REMARK   66  A    between atoms: _161  and  _163
REMARK   67  A    between atoms: _163  and  _164
REMARK   68  A    between atoms: _163  and  _166
REMARK   69  A    between atoms: _166  and  _167
REMARK   70  A    between atoms: _173  and  _174
REMARK   71  A    between atoms: _179  and  _181
REMARK   72  A    between atoms: _181  and  _182
REMARK   73  A    between atoms: _181  and  _184
REMARK   74  A    between atoms: _184  and  _185
REMARK   75  A    between atoms: _188  and  _190
REMARK   76  A    between atoms: _190  and  _191
REMARK   77  A    between atoms: _190  and  _193
REMARK   78  A    between atoms: _193  and  _194
REMARK   79  A    between atoms: _194  and  _195
REMARK   80  A    between atoms: _197  and  _199
REMARK   81  A    between atoms: _199  and  _200
REMARK   82  A    between atoms: _199  and  _202
REMARK   83  A    between atoms: _202  and  _203
REMARK   84  A    between atoms: _206  and  _208
REMARK   85  A    between atoms: _208  and  _209
REMARK   86  A    between atoms: _208  and  _211
REMARK   87  A    between atoms: _211  and  _212
REMARK   88  A    between atoms: _218  and  _220
REMARK   89  A    between atoms: _220  and  _221
REMARK   90  A    between atoms: _220  and  _223
REMARK   91  A    between atoms: _223  and  _224
REMARK   92  A    between atoms: _229  and  _231
REMARK   93  A    between atoms: _231  and  _232
REMARK   94  A    between atoms: _231  and  _234
REMARK   95  A    between atoms: _234  and  _235
REMARK   96  A    between atoms: _240  and  _242
REMARK   97  A    between atoms: _242  and  _243
REMARK   98  A    between atoms: _242  and  _245
REMARK   99  A    between atoms: _245  and  _246
REMARK  100  A    between atoms: _251  and  _252
REMARK  101  A    between atoms: _254  and  _256
REMARK  102  A    between atoms: _256  and  _257
REMARK  103  A    between atoms: _256  and  _259
REMARK  104  A    between atoms: _261  and  _263
REMARK  105  A    between atoms: _263  and  _264
REMARK  106  A    between atoms: _263  and  _266
REMARK  107  A    between atoms: _266  and  _267
REMARK  108  A    between atoms: _272  and  _273
REMARK  109  A    between atoms: _277  and  _280
REMARK  110  A    between atoms: _280  and  _281
REMARK  111  A    between atoms: _281  and  _354
REMARK  112  A    between atoms: _285  and  _287
REMARK  113  A    between atoms: _287  and  _289
REMARK  114  A    between atoms: _289  and  _290
REMARK  115  A    between atoms: _289  and  _292
REMARK  116  A    between atoms: _292  and  _293
REMARK  117  A    between atoms: _296  and  _298
REMARK  118  A    between atoms: _298  and  _299
REMARK  119  A    between atoms: _301  and  _303
REMARK  120  A    between atoms: _303  and  _304
REMARK  121  A    between atoms: _306  and  _308
REMARK  122  A    between atoms: _308  and  _309
REMARK  123  A    between atoms: _308  and  _311
REMARK  124  A    between atoms: _311  and  _312
REMARK  125  A    between atoms: _315  and  _317
REMARK  126  A    between atoms: _317  and  _318
REMARK  127  A    between atoms: _317  and  _320
REMARK  128  A    between atoms: _320  and  _321
REMARK  129  A    between atoms: _324  and  _326
REMARK  130  A    between atoms: _326  and  _327
REMARK  131  A    between atoms: _326  and  _329
REMARK  132  A    between atoms: _329  and  _330
REMARK  133  A    between atoms: _330  and  _331
REMARK  134  A    between atoms: _331  and  _332
REMARK  135  A    between atoms: _341  and  _343
REMARK  136  A    between atoms: _343  and  _344
REMARK  137  A    between atoms: _343  and  _346
REMARK  138  A    between atoms: _348  and  _350
REMARK  139  A    between atoms: _350  and  _351
REMARK  140  A    between atoms: _350  and  _353
REMARK  141  A    between atoms: _353  and  _354
REMARK  142  A    between atoms: _355  and  _357
REMARK  143  A    between atoms: _357  and  _358
REMARK  144  A    between atoms: _357  and  _360
REMARK  145  A    between atoms: _360  and  _361
REMARK  146  A    between atoms: _361  and  _362
REMARK  147  A    between atoms: _365  and  _367
REMARK  148  A    between atoms: _367  and  _368
REMARK  149  A    between atoms: _367  and  _370
REMARK  150  A    between atoms: _370  and  _371
REMARK  151  A    between atoms: _374  and  _376
REMARK  152  A    between atoms: _376  and  _377
REMARK  153  A    between atoms: _376  and  _379
REMARK  154  A    between atoms: _379  and  _380
REMARK  155  A    between atoms: _385  and  _387
REMARK  156  A    between atoms: _387  and  _388
REMARK  157  A    between atoms: _387  and  _390
REMARK  158  A    between atoms: _390  and  _391
REMARK  159  A    between atoms: _394  and  _396
REMARK  160  A    between atoms: _396  and  _397
REMARK  161  A    between atoms: _396  and  _399
REMARK  162  A    between atoms: _399  and  _400
REMARK  163  A    between atoms: _405  and  _407
REMARK  164  A    between atoms: _407  and  _408
REMARK  165  A    between atoms: _407  and  _410
REMARK  166  A    between atoms: _410  and  _411
REMARK  167  A    between atoms: _411  and  _480
REMARK  168  A    between atoms: _412  and  _414
REMARK  169  A    between atoms: _414  and  _415
REMARK  170  A    between atoms: _414  and  _417
REMARK  171  A    between atoms: _417  and  _418
REMARK  172  A    between atoms: _423  and  _424
REMARK  173  A    between atoms: _426  and  _428
REMARK  174  A    between atoms: _428  and  _429
REMARK  175  A    between atoms: _428  and  _431
REMARK  176  A    between atoms: _431  and  _432
REMARK  177  A    between atoms: _432  and  _433
REMARK  178  A    between atoms: _433  and  _434
REMARK  179  A    between atoms: _443  and  _445
REMARK  180  A    between atoms: _445  and  _446
REMARK  181  A    between atoms: _445  and  _448
REMARK  182  A    between atoms: _448  and  _449
REMARK  183  A    between atoms: _452  and  _454
REMARK  184  A    between atoms: _454  and  _455
REMARK  185  A    between atoms: _454  and  _457
REMARK  186  A    between atoms: _457  and  _458
REMARK  187  A    between atoms: _458  and  _459
REMARK  188  A    between atoms: _459  and  _460
REMARK  189  A    between atoms: _460  and  _461
REMARK  190  A    between atoms: _465  and  _467
REMARK  191  A    between atoms: _467  and  _468
REMARK  192  A    between atoms: _467  and  _470
REMARK  193  A    between atoms: _470  and  _471
REMARK  194  A    between atoms: _474  and  _476
REMARK  195  A    between atoms: _476  and  _477
REMARK  196  A    between atoms: _476  and  _479
REMARK  197  A    between atoms: _479  and  _480
REMARK  198  A    between atoms: _481  and  _483
REMARK  199  A    between atoms: _483  and  _484
REMARK  200  A    between atoms: _483  and  _486
REMARK  201  A    between atoms: _486  and  _487
REMARK  202  A    between atoms: _490  and  _492
REMARK  203  A    between atoms: _492  and  _493
REMARK  204  A    between atoms: _496  and  _498
REMARK  205  A    between atoms: _498  and  _499
REMARK  206  A    between atoms: _502  and  _504
REMARK  207  A    between atoms: _504  and  _505
REMARK  208  A    between atoms: _504  and  _507
REMARK  209  A    between atoms: _507  and  _508
REMARK  210  A    between atoms: _514  and  _516
REMARK  211  A    between atoms: _516  and  _517
REMARK  212  A    between atoms: _516  and  _519
REMARK  213  A    between atoms: _519  and  _520
REMARK  214  A    between atoms: _522  and  _524
REMARK  215  A    between atoms: _524  and  _525
REMARK  216  A    between atoms: _524  and  _527
REMARK  217  A    between atoms: _527  and  _528
REMARK  218  A    between atoms: _530  and  _532
REMARK  219  A    between atoms: _532  and  _533
REMARK  220  A    between atoms: _532  and  _535
REMARK  221  A    between atoms: _535  and  _536
REMARK  222  A    between atoms: _536  and  _537
REMARK  223  A    between atoms: _537  and  _538
REMARK  224  A    between atoms: _547  and  _549
REMARK  225  A    between atoms: _549  and  _550
REMARK  226  A    between atoms: _553  and  _555
REMARK  227  A    between atoms: _555  and  _556
REMARK  228  A    between atoms: _555  and  _558
REMARK  229  A    between atoms: _558  and  _559
REMARK  230  A    between atoms: _562  and  _564
REMARK  231  A    between atoms: _564  and  _565
REMARK  232  A    between atoms: _564  and  _567
REMARK  233  A    between atoms: _567  and  _568
REMARK  234  A    between atoms: _578  and  _580
REMARK  235  A    between atoms: _580  and  _581
REMARK  236  A    between atoms: _580  and  _583
REMARK  237  A    between atoms: _583  and  _584
REMARK  238  A    between atoms: _584  and  _585
REMARK  239  A    between atoms: _590  and  _592
REMARK  240  A    between atoms: _592  and  _593
REMARK  241  A    between atoms: _592  and  _595
REMARK  242  A    between atoms: _595  and  _596
REMARK  243  A    between atoms: _602  and  _604
REMARK  244  A    between atoms: _604  and  _605
REMARK  245  A    between atoms: _604  and  _607
REMARK  246  A    between atoms: _607  and  _608
REMARK  247  A    between atoms: _608  and  _609
REMARK  248  A    between atoms: _609  and  _610
REMARK  249  A    between atoms: _619  and  _621
REMARK  250  A    between atoms: _621  and  _622
REMARK  251  A    between atoms: _621  and  _624
REMARK  252  A    between atoms: _624  and  _625
REMARK  253  A    between atoms: _627  and  _629
REMARK  254  A    between atoms: _629  and  _630
REMARK  255  A    between atoms: _629  and  _632
REMARK  256  A    between atoms: _632  and  _633
REMARK  257  A    between atoms: _633  and  _634
REMARK  258  A    between atoms: _636  and  _638
REMARK  259  A    between atoms: _638  and  _639
REMARK  260  A    between atoms: _638  and  _641
REMARK  261  A    between atoms: _641  and  _642
REMARK  262  A    between atoms: _645  and  _647
REMARK  263  A    between atoms: _647  and  _648
REMARK  264  A    between atoms: _647  and  _650
REMARK  265  A    between atoms: _650  and  _651
REMARK  266  A    between atoms: _651  and  _652
REMARK  267  A    between atoms: _652  and  _653
REMARK  268  A    between atoms: _653  and  _654
REMARK  269  A    between atoms: _658  and  _660
REMARK  270  A    between atoms: _660  and  _661
REMARK  271  A    between atoms: _660  and  _663
REMARK  272  A    between atoms: _663  and  _664
REMARK  273  A    between atoms: _670  and  _671
REMARK  274  A    between atoms: _676  and  _678
REMARK  275  A    between atoms: _678  and  _679
REMARK  276  A    between atoms: _678  and  _681
REMARK  277  A    between atoms: _681  and  _682
REMARK  278  A    between atoms: _685  and  _687
REMARK  279  A    between atoms: _687  and  _688
REMARK  280  A    between atoms: _687  and  _690
REMARK  281  A    between atoms: _690  and  _691
REMARK  282  A    between atoms: _691  and  _692
REMARK  283  A    between atoms: _694  and  _696
REMARK  284  A    between atoms: _696  and  _697
REMARK  285  A    between atoms: _696  and  _699
REMARK  286  A    between atoms: _699  and  _700
REMARK  287  A    between atoms: _703  and  _705
REMARK  288  A    between atoms: _705  and  _706
REMARK  289  A    between atoms: _705  and  _708
REMARK  290  A    between atoms: _708  and  _709
REMARK  291  A    between atoms: _715  and  _717
REMARK  292  A    between atoms: _717  and  _718
REMARK  293  A    between atoms: _717  and  _720
REMARK  294  A    between atoms: _720  and  _721
REMARK  295  A    between atoms: _726  and  _728
REMARK  296  A    between atoms: _728  and  _729
REMARK  297  A    between atoms: _728  and  _731
REMARK  298  A    between atoms: _731  and  _732
REMARK  299  A    between atoms: _737  and  _739
REMARK  300  A    between atoms: _739  and  _740
REMARK  301  A    between atoms: _739  and  _742
REMARK  302  A    between atoms: _742  and  _743
REMARK  303  A    between atoms: _743  and  _755
REMARK  304  A    between atoms: _744  and  _746
REMARK  305  A    between atoms: _746  and  _747
REMARK  306  A    between atoms: _749  and  _751
REMARK  307  A    between atoms: _751  and  _752
REMARK  308  A    between atoms: _751  and  _754
REMARK  309  A    between atoms: _754  and  _755
REMARK  310  A    between atoms: _756  and  _758
REMARK  311  A    between atoms: _758  and  _759
REMARK  312  A    between atoms: _758  and  _761
REMARK  313  A    between atoms: _761  and  _762
REMARK  314  A    between atoms: _767  and  _769
REMARK  315  A    between atoms: _769  and  _770
REMARK  316  A    between atoms: _769  and  _772
REMARK  317  A    between atoms: _772  and  _773
REMARK  318  A    between atoms: _778  and  _779
REMARK  319  A    between atoms: _781  and  _783
REMARK  320  A    between atoms: _783  and  _784
REMARK  321  A    between atoms: _783  and  _786
REMARK  322  A    between atoms: _786  and  _787
REMARK                            x       y       z     vdW  Elec       q    Type
REMARK                         _______ _______ _______ _____ _____    ______ ____
ROOT
ATOM      1  O   HOH     1      14.333   7.406   8.706  0.00  0.00    +0.000 OA
ENDROOT
TORSDOF 0
REMARK  Name = ../refined-set-2016/1hn4/1hn4_pocket.pdb
REMARK  322 active torsions:
REMARK  status: ('A' for Active; 'I' for Inactive)
REMARK    1  A    between atoms: _1  and  _5
REMARK    2  A    between atoms: _5  and  _6
REMARK    3  A    between atoms: _8  and  _10
REMARK    4  A    between atoms: _10  and  _11
REMARK    5  A    between atoms: _10  and  _13
REMARK    6  A    between atoms: _13  and  _14
REMARK    7  A    between atoms: _17  and  _19
REMARK    8  A    between atoms: _19  and  _20
REMARK    9  A    between atoms: _19  and  _22
REMARK   10  A    between atoms: _22  and  _23
REMARK   11  A    between atoms: _25  and  _27
REMARK   12  A    between atoms: _27  and  _28
REMARK   13  A    between atoms: _27  and  _30
REMARK   14  A    between atoms: _30  and  _31
REMARK   15  A    between atoms: _33  and  _35
REMARK   16  A    between atoms: _35  and  _36
REMARK   17  A    between atoms: _35  and  _38
REMARK   18  A    between atoms: _38  and  _39
REMARK   19  A    between atoms: _39  and  _40
REMARK   20  A    between atoms: _40  and  _41
REMARK   21  A    between atoms: _50  and  _52
REMARK   22  A    between atoms: _52  and  _53
REMARK   23  A    between atoms: _56  and  _58
REMARK   24  A    between atoms: _58  and  _59
REMARK   25  A    between atoms: _58  and  _61
REMARK   26  A    between atoms: _61  and  _62
REMARK   27  A    between atoms: _65  and  _67
REMARK   28  A    between atoms: _67  and  _68
REMARK   29  A    between atoms: _67  and  _70
REMARK   30  A    between atoms: _70  and  _71
REMARK   31  A    between atoms: _81  and  _83
REMARK   32  A    between atoms: _83  and  _84
REMARK   33  A    between atoms: _83  and  _86
REMARK   34  A    between atoms: _86  and  _87
REMARK   35  A    between atoms: _87  and  _88
REMARK   36  A    between atoms: _93  and  _95
REMARK   37  A    between atoms: _95  and  _96
REMARK   38  A    between atoms: _95  and  _98
REMARK   39  A    between atoms: _98  and  _99
REMARK   40  A    between atoms: _105  and  _107
REMARK   41  A    between atoms: _107  and  _108
REMARK   42  A    between atoms: _107  and  _110
REMARK   43  A    between atoms: _110  and  _111
REMARK   44  A    between atoms: _111  and  _112
REMARK   45  A    between atoms: _112  and  _113
REMARK   46  A    between atoms: _122  and  _124
REMARK   47  A    between atoms: _124  and  _125
REMARK   48  A    between atoms: _124  and  _127
REMARK   49  A    between atoms: _127  and  _128
REMARK   50  A    between atoms: _130  and  _132
REMARK   51  A    between atoms: _132  and  _133
REMARK   52  A    between atoms: _132  and  _135
REMARK   53  A    between atoms: _135  and  _136
REMARK   54  A    between atoms: _136  and  _137
REMARK   55  A    between atoms: _139  and  _141
REMARK   56  A    between atoms: _141  and  _142
REMARK   57  A    between atoms: _141  and  _144
REMARK   58  A    between atoms: _144  and  _145
REMARK   59  A    between atoms: _148  and  _150
REMARK   60  A    between atoms: _150  and  _151
REMARK   61  A    between atoms: _150  and  _153
REMARK   62  A    between atoms: _153  and  _154
REMARK   63  A    between atoms: _154  and  _155
REMARK   64  A    between atoms: _155  and  _156
REMARK   65  A    between atoms: _156  and  _157
REMARK   66  A    between atoms: _161  and  _163
REMARK   67  A    between atoms: _163  and  _164
REMARK   68  A    between atoms: _163  and  _166
REMARK   69  A    between atoms: _166  and  _167
REMARK   70  A    between atoms: _173  and  _174
REMARK   71  A    between atoms: _179  and  _181
REMARK   72  A    between atoms: _181  and  _182
REMARK   73  A    between atoms: _181  and  _184
REMARK   74  A    between atoms: _184  and  _185
REMARK   75  A    between atoms: _188  and  _190
REMARK   76  A    between atoms: _190  and  _191
REMARK   77  A    between atoms: _190  and  _193
REMARK   78  A    between atoms: _193  and  _194
REMARK   79  A    between atoms: _194  and  _195
REMARK   80  A    between atoms: _197  and  _199
REMARK   81  A    between atoms: _199  and  _200
REMARK   82  A    between atoms: _199  and  _202
REMARK   83  A    between atoms: _202  and  _203
REMARK   84  A    between atoms: _206  and  _208
REMARK   85  A    between atoms: _208  and  _209
REMARK   86  A    between atoms: _208  and  _211
REMARK   87  A    between atoms: _211  and  _212
REMARK   88  A    between atoms: _218  and  _220
REMARK   89  A    between atoms: _220  and  _221
REMARK   90  A    between atoms: _220  and  _223
REMARK   91  A    between atoms: _223  and  _224
REMARK   92  A    between atoms: _229  and  _231
REMARK   93  A    between atoms: _231  and  _232
REMARK   94  A    between atoms: _231  and  _234
REMARK   95  A    between atoms: _234  and  _235
REMARK   96  A    between atoms: _240  and  _242
REMARK   97  A    between atoms: _242  and  _243
REMARK   98  A    between atoms: _242  and  _245
REMARK   99  A    between atoms: _245  and  _246
REMARK  100  A    between atoms: _251  and  _252
REMARK  101  A    between atoms: _254  and  _256
REMARK  102  A    between atoms: _256  and  _257
REMARK  103  A    between atoms: _256  and  _259
REMARK  104  A    between atoms: _261  and  _263
REMARK  105  A    between atoms: _263  and  _264
REMARK  106  A    between atoms: _263  and  _266
REMARK  107  A    between atoms: _266  and  _267
REMARK  108  A    between atoms: _272  and  _273
REMARK  109  A    between atoms: _277  and  _280
REMARK  110  A    between atoms: _280  and  _281
REMARK  111  A    between atoms: _281  and  _354
REMARK  112  A    between atoms: _285  and  _287
REMARK  113  A    between atoms: _287  and  _289
REMARK  114  A    between atoms: _289  and  _290
REMARK  115  A    between atoms: _289  and  _292
REMARK  116  A    between atoms: _292  and  _293
REMARK  117  A    between atoms: _296  and  _298
REMARK  118  A    between atoms: _298  and  _299
REMARK  119  A    between atoms: _301  and  _303
REMARK  120  A    between atoms: _303  and  _304
REMARK  121  A    between atoms: _306  and  _308
REMARK  122  A    between atoms: _308  and  _309
REMARK  123  A    between atoms: _308  and  _311
REMARK  124  A    between atoms: _311  and  _312
REMARK  125  A    between atoms: _315  and  _317
REMARK  126  A    between atoms: _317  and  _318
REMARK  127  A    between atoms: _317  and  _320
REMARK  128  A    between atoms: _320  and  _321
REMARK  129  A    between atoms: _324  and  _326
REMARK  130  A    between atoms: _326  and  _327
REMARK  131  A    between atoms: _326  and  _329
REMARK  132  A    between atoms: _329  and  _330
REMARK  133  A    between atoms: _330  and  _331
REMARK  134  A    between atoms: _331  and  _332
REMARK  135  A    between atoms: _341  and  _343
REMARK  136  A    between atoms: _343  and  _344
REMARK  137  A    between atoms: _343  and  _346
REMARK  138  A    between atoms: _348  and  _350
REMARK  139  A    between atoms: _350  and  _351
REMARK  140  A    between atoms: _350  and  _353
REMARK  141  A    between atoms: _353  and  _354
REMARK  142  A    between atoms: _355  and  _357
REMARK  143  A    between atoms: _357  and  _358
REMARK  144  A    between atoms: _357  and  _360
REMARK  145  A    between atoms: _360  and  _361
REMARK  146  A    between atoms: _361  and  _362
REMARK  147  A    between atoms: _365  and  _367
REMARK  148  A    between atoms: _367  and  _368
REMARK  149  A    between atoms: _367  and  _370
REMARK  150  A    between atoms: _370  and  _371
REMARK  151  A    between atoms: _374  and  _376
REMARK  152  A    between atoms: _376  and  _377
REMARK  153  A    between atoms: _376  and  _379
REMARK  154  A    between atoms: _379  and  _380
REMARK  155  A    between atoms: _385  and  _387
REMARK  156  A    between atoms: _387  and  _388
REMARK  157  A    between atoms: _387  and  _390
REMARK  158  A    between atoms: _390  and  _391
REMARK  159  A    between atoms: _394  and  _396
REMARK  160  A    between atoms: _396  and  _397
REMARK  161  A    between atoms: _396  and  _399
REMARK  162  A    between atoms: _399  and  _400
REMARK  163  A    between atoms: _405  and  _407
REMARK  164  A    between atoms: _407  and  _408
REMARK  165  A    between atoms: _407  and  _410
REMARK  166  A    between atoms: _410  and  _411
REMARK  167  A    between atoms: _411  and  _480
REMARK  168  A    between atoms: _412  and  _414
REMARK  169  A    between atoms: _414  and  _415
REMARK  170  A    between atoms: _414  and  _417
REMARK  171  A    between atoms: _417  and  _418
REMARK  172  A    between atoms: _423  and  _424
REMARK  173  A    between atoms: _426  and  _428
REMARK  174  A    between atoms: _428  and  _429
REMARK  175  A    between atoms: _428  and  _431
REMARK  176  A    between atoms: _431  and  _432
REMARK  177  A    between atoms: _432  and  _433
REMARK  178  A    between atoms: _433  and  _434
REMARK  179  A    between atoms: _443  and  _445
REMARK  180  A    between atoms: _445  and  _446
REMARK  181  A    between atoms: _445  and  _448
REMARK  182  A    between atoms: _448  and  _449
REMARK  183  A    between atoms: _452  and  _454
REMARK  184  A    between atoms: _454  and  _455
REMARK  185  A    between atoms: _454  and  _457
REMARK  186  A    between atoms: _457  and  _458
REMARK  187  A    between atoms: _458  and  _459
REMARK  188  A    between atoms: _459  and  _460
REMARK  189  A    between atoms: _460  and  _461
REMARK  190  A    between atoms: _465  and  _467
REMARK  191  A    between atoms: _467  and  _468
REMARK  192  A    between atoms: _467  and  _470
REMARK  193  A    between atoms: _470  and  _471
REMARK  194  A    between atoms: _474  and  _476
REMARK  195  A    between atoms: _476  and  _477
REMARK  196  A    between atoms: _476  and  _479
REMARK  197  A    between atoms: _479  and  _480
REMARK  198  A    between atoms: _481  and  _483
REMARK  199  A    between atoms: _483  and  _484
REMARK  200  A    between atoms: _483  and  _486
REMARK  201  A    between atoms: _486  and  _487
REMARK  202  A    between atoms: _490  and  _492
REMARK  203  A    between atoms: _492  and  _493
REMARK  204  A    between atoms: _496  and  _498
REMARK  205  A    between atoms: _498  and  _499
REMARK  206  A    between atoms: _502  and  _504
REMARK  207  A    between atoms: _504  and  _505
REMARK  208  A    between atoms: _504  and  _507
REMARK  209  A    between atoms: _507  and  _508
REMARK  210  A    between atoms: _514  and  _516
REMARK  211  A    between atoms: _516  and  _517
REMARK  212  A    between atoms: _516  and  _519
REMARK  213  A    between atoms: _519  and  _520
REMARK  214  A    between atoms: _522  and  _524
REMARK  215  A    between atoms: _524  and  _525
REMARK  216  A    between atoms: _524  and  _527
REMARK  217  A    between atoms: _527  and  _528
REMARK  218  A    between atoms: _530  and  _532
REMARK  219  A    between atoms: _532  and  _533
REMARK  220  A    between atoms: _532  and  _535
REMARK  221  A    between atoms: _535  and  _536
REMARK  222  A    between atoms: _536  and  _537
REMARK  223  A    between atoms: _537  and  _538
REMARK  224  A    between atoms: _547  and  _549
REMARK  225  A    between atoms: _549  and  _550
REMARK  226  A    between atoms: _553  and  _555
REMARK  227  A    between atoms: _555  and  _556
REMARK  228  A    between atoms: _555  and  _558
REMARK  229  A    between atoms: _558  and  _559
REMARK  230  A    between atoms: _562  and  _564
REMARK  231  A    between atoms: _564  and  _565
REMARK  232  A    between atoms: _564  and  _567
REMARK  233  A    between atoms: _567  and  _568
REMARK  234  A    between atoms: _578  and  _580
REMARK  235  A    between atoms: _580  and  _581
REMARK  236  A    between atoms: _580  and  _583
REMARK  237  A    between atoms: _583  and  _584
REMARK  238  A    between atoms: _584  and  _585
REMARK  239  A    between atoms: _590  and  _592
REMARK  240  A    between atoms: _592  and  _593
REMARK  241  A    between atoms: _592  and  _595
REMARK  242  A    between atoms: _595  and  _596
REMARK  243  A    between atoms: _602  and  _604
REMARK  244  A    between atoms: _604  and  _605
REMARK  245  A    between atoms: _604  and  _607
REMARK  246  A    between atoms: _607  and  _608
REMARK  247  A    between atoms: _608  and  _609
REMARK  248  A    between atoms: _609  and  _610
REMARK  249  A    between atoms: _619  and  _621
REMARK  250  A    between atoms: _621  and  _622
REMARK  251  A    between atoms: _621  and  _624
REMARK  252  A    between atoms: _624  and  _625
REMARK  253  A    between atoms: _627  and  _629
REMARK  254  A    between atoms: _629  and  _630
REMARK  255  A    between atoms: _629  and  _632
REMARK  256  A    between atoms: _632  and  _633
REMARK  257  A    between atoms: _633  and  _634
REMARK  258  A    between atoms: _636  and  _638
REMARK  259  A    between atoms: _638  and  _639
REMARK  260  A    between atoms: _638  and  _641
REMARK  261  A    between atoms: _641  and  _642
REMARK  262  A    between atoms: _645  and  _647
REMARK  263  A    between atoms: _647  and  _648
REMARK  264  A    between atoms: _647  and  _650
REMARK  265  A    between atoms: _650  and  _651
REMARK  266  A    between atoms: _651  and  _652
REMARK  267  A    between atoms: _652  and  _653
REMARK  268  A    between atoms: _653  and  _654
REMARK  269  A    between atoms: _658  and  _660
REMARK  270  A    between atoms: _660  and  _661
REMARK  271  A    between atoms: _660  and  _663
REMARK  272  A    between atoms: _663  and  _664
REMARK  273  A    between atoms: _670  and  _671
REMARK  274  A    between atoms: _676  and  _678
REMARK  275  A    between atoms: _678  and  _679
REMARK  276  A    between atoms: _678  and  _681
REMARK  277  A    between atoms: _681  and  _682
REMARK  278  A    between atoms: _685  and  _687
REMARK  279  A    between atoms: _687  and  _688
REMARK  280  A    between atoms: _687  and  _690
REMARK  281  A    between atoms: _690  and  _691
REMARK  282  A    between atoms: _691  and  _692
REMARK  283  A    between atoms: _694  and  _696
REMARK  284  A    between atoms: _696  and  _697
REMARK  285  A    between atoms: _696  and  _699
REMARK  286  A    between atoms: _699  and  _700
REMARK  287  A    between atoms: _703  and  _705
REMARK  288  A    between atoms: _705  and  _706
REMARK  289  A    between atoms: _705  and  _708
REMARK  290  A    between atoms: _708  and  _709
REMARK  291  A    between atoms: _715  and  _717
REMARK  292  A    between atoms: _717  and  _718
REMARK  293  A    between atoms: _717  and  _720
REMARK  294  A    between atoms: _720  and  _721
REMARK  295  A    between atoms: _726  and  _728
REMARK  296  A    between atoms: _728  and  _729
REMARK  297  A    between atoms: _728  and  _731
REMARK  298  A    between atoms: _731  and  _732
REMARK  299  A    between atoms: _737  and  _739
REMARK  300  A    between atoms: _739  and  _740
REMARK  301  A    between atoms: _739  and  _742
REMARK  302  A    between atoms: _742  and  _743
REMARK  303  A    between atoms: _743  and  _755
REMARK  304  A    between atoms: _744  and  _746
REMARK  305  A    between atoms: _746  and  _747
REMARK  306  A    between atoms: _749  and  _751
REMARK  307  A    between atoms: _751  and  _752
REMARK  308  A    between atoms: _751  and  _754
REMARK  309  A    between atoms: _754  and  _755
REMARK  310  A    between atoms: _756  and  _758
REMARK  311  A    between atoms: _758  and  _759
REMARK  312  A    between atoms: _758  and  _761
REMARK  313  A    between atoms: _761  and  _762
REMARK  314  A    between atoms: _767  and  _769
REMARK  315  A    between atoms: _769  and  _770
REMARK  316  A    between atoms: _769  and  _772
REMARK  317  A    between atoms: _772  and  _773
REMARK  318  A    between atoms: _778  and  _779
REMARK  319  A    between atoms: _781  and  _783
REMARK  320  A    between atoms: _783  and  _784
REMARK  321  A    between atoms: _783  and  _786
REMARK  322  A    between atoms: _786  and  _787
REMARK                            x       y       z     vdW  Elec       q    Type
REMARK                         _______ _______ _______ _____ _____    ______ ____
ROOT
ATOM      1  O   HOH     1      23.203   7.970   5.358  0.00  0.00    +0.000 OA
ENDROOT
TORSDOF 0
REMARK  Name = ../refined-set-2016/1hn4/1hn4_pocket.pdb
REMARK  322 active torsions:
REMARK  status: ('A' for Active; 'I' for Inactive)
REMARK    1  A    between atoms: _1  and  _5
REMARK    2  A    between atoms: _5  and  _6
REMARK    3  A    between atoms: _8  and  _10
REMARK    4  A    between atoms: _10  and  _11
REMARK    5  A    between atoms: _10  and  _13
REMARK    6  A    between atoms: _13  and  _14
REMARK    7  A    between atoms: _17  and  _19
REMARK    8  A    between atoms: _19  and  _20
REMARK    9  A    between atoms: _19  and  _22
REMARK   10  A    between atoms: _22  and  _23
REMARK   11  A    between atoms: _25  and  _27
REMARK   12  A    between atoms: _27  and  _28
REMARK   13  A    between atoms: _27  and  _30
REMARK   14  A    between atoms: _30  and  _31
REMARK   15  A    between atoms: _33  and  _35
REMARK   16  A    between atoms: _35  and  _36
REMARK   17  A    between atoms: _35  and  _38
REMARK   18  A    between atoms: _38  and  _39
REMARK   19  A    between atoms: _39  and  _40
REMARK   20  A    between atoms: _40  and  _41
REMARK   21  A    between atoms: _50  and  _52
REMARK   22  A    between atoms: _52  and  _53
REMARK   23  A    between atoms: _56  and  _58
REMARK   24  A    between atoms: _58  and  _59
REMARK   25  A    between atoms: _58  and  _61
REMARK   26  A    between atoms: _61  and  _62
REMARK   27  A    between atoms: _65  and  _67
REMARK   28  A    between atoms: _67  and  _68
REMARK   29  A    between atoms: _67  and  _70
REMARK   30  A    between atoms: _70  and  _71
REMARK   31  A    between atoms: _81  and  _83
REMARK   32  A    between atoms: _83  and  _84
REMARK   33  A    between atoms: _83  and  _86
REMARK   34  A    between atoms: _86  and  _87
REMARK   35  A    between atoms: _87  and  _88
REMARK   36  A    between atoms: _93  and  _95
REMARK   37  A    between atoms: _95  and  _96
REMARK   38  A    between atoms: _95  and  _98
REMARK   39  A    between atoms: _98  and  _99
REMARK   40  A    between atoms: _105  and  _107
REMARK   41  A    between atoms: _107  and  _108
REMARK   42  A    between atoms: _107  and  _110
REMARK   43  A    between atoms: _110  and  _111
REMARK   44  A    between atoms: _111  and  _112
REMARK   45  A    between atoms: _112  and  _113
REMARK   46  A    between atoms: _122  and  _124
REMARK   47  A    between atoms: _124  and  _125
REMARK   48  A    between atoms: _124  and  _127
REMARK   49  A    between atoms: _127  and  _128
REMARK   50  A    between atoms: _130  and  _132
REMARK   51  A    between atoms: _132  and  _133
REMARK   52  A    between atoms: _132  and  _135
REMARK   53  A    between atoms: _135  and  _136
REMARK   54  A    between atoms: _136  and  _137
REMARK   55  A    between atoms: _139  and  _141
REMARK   56  A    between atoms: _141  and  _142
REMARK   57  A    between atoms: _141  and  _144
REMARK   58  A    between atoms: _144  and  _145
REMARK   59  A    between atoms: _148  and  _150
REMARK   60  A    between atoms: _150  and  _151
REMARK   61  A    between atoms: _150  and  _153
REMARK   62  A    between atoms: _153  and  _154
REMARK   63  A    between atoms: _154  and  _155
REMARK   64  A    between atoms: _155  and  _156
REMARK   65  A    between atoms: _156  and  _157
REMARK   66  A    between atoms: _161  and  _163
REMARK   67  A    between atoms: _163  and  _164
REMARK   68  A    between atoms: _163  and  _166
REMARK   69  A    between atoms: _166  and  _167
REMARK   70  A    between atoms: _173  and  _174
REMARK   71  A    between atoms: _179  and  _181
REMARK   72  A    between atoms: _181  and  _182
REMARK   73  A    between atoms: _181  and  _184
REMARK   74  A    between atoms: _184  and  _185
REMARK   75  A    between atoms: _188  and  _190
REMARK   76  A    between atoms: _190  and  _191
REMARK   77  A    between atoms: _190  and  _193
REMARK   78  A    between atoms: _193  and  _194
REMARK   79  A    between atoms: _194  and  _195
REMARK   80  A    between atoms: _197  and  _199
REMARK   81  A    between atoms: _199  and  _200
REMARK   82  A    between atoms: _199  and  _202
REMARK   83  A    between atoms: _202  and  _203
REMARK   84  A    between atoms: _206  and  _208
REMARK   85  A    between atoms: _208  and  _209
REMARK   86  A    between atoms: _208  and  _211
REMARK   87  A    between atoms: _211  and  _212
REMARK   88  A    between atoms: _218  and  _220
REMARK   89  A    between atoms: _220  and  _221
REMARK   90  A    between atoms: _220  and  _223
REMARK   91  A    between atoms: _223  and  _224
REMARK   92  A    between atoms: _229  and  _231
REMARK   93  A    between atoms: _231  and  _232
REMARK   94  A    between atoms: _231  and  _234
REMARK   95  A    between atoms: _234  and  _235
REMARK   96  A    between atoms: _240  and  _242
REMARK   97  A    between atoms: _242  and  _243
REMARK   98  A    between atoms: _242  and  _245
REMARK   99  A    between atoms: _245  and  _246
REMARK  100  A    between atoms: _251  and  _252
REMARK  101  A    between atoms: _254  and  _256
REMARK  102  A    between atoms: _256  and  _257
REMARK  103  A    between atoms: _256  and  _259
REMARK  104  A    between atoms: _261  and  _263
REMARK  105  A    between atoms: _263  and  _264
REMARK  106  A    between atoms: _263  and  _266
REMARK  107  A    between atoms: _266  and  _267
REMARK  108  A    between atoms: _272  and  _273
REMARK  109  A    between atoms: _277  and  _280
REMARK  110  A    between atoms: _280  and  _281
REMARK  111  A    between atoms: _281  and  _354
REMARK  112  A    between atoms: _285  and  _287
REMARK  113  A    between atoms: _287  and  _289
REMARK  114  A    between atoms: _289  and  _290
REMARK  115  A    between atoms: _289  and  _292
REMARK  116  A    between atoms: _292  and  _293
REMARK  117  A    between atoms: _296  and  _298
REMARK  118  A    between atoms: _298  and  _299
REMARK  119  A    between atoms: _301  and  _303
REMARK  120  A    between atoms: _303  and  _304
REMARK  121  A    between atoms: _306  and  _308
REMARK  122  A    between atoms: _308  and  _309
REMARK  123  A    between atoms: _308  and  _311
REMARK  124  A    between atoms: _311  and  _312
REMARK  125  A    between atoms: _315  and  _317
REMARK  126  A    between atoms: _317  and  _318
REMARK  127  A    between atoms: _317  and  _320
REMARK  128  A    between atoms: _320  and  _321
REMARK  129  A    between atoms: _324  and  _326
REMARK  130  A    between atoms: _326  and  _327
REMARK  131  A    between atoms: _326  and  _329
REMARK  132  A    between atoms: _329  and  _330
REMARK  133  A    between atoms: _330  and  _331
REMARK  134  A    between atoms: _331  and  _332
REMARK  135  A    between atoms: _341  and  _343
REMARK  136  A    between atoms: _343  and  _344
REMARK  137  A    between atoms: _343  and  _346
REMARK  138  A    between atoms: _348  and  _350
REMARK  139  A    between atoms: _350  and  _351
REMARK  140  A    between atoms: _350  and  _353
REMARK  141  A    between atoms: _353  and  _354
REMARK  142  A    between atoms: _355  and  _357
REMARK  143  A    between atoms: _357  and  _358
REMARK  144  A    between atoms: _357  and  _360
REMARK  145  A    between atoms: _360  and  _361
REMARK  146  A    between atoms: _361  and  _362
REMARK  147  A    between atoms: _365  and  _367
REMARK  148  A    between atoms: _367  and  _368
REMARK  149  A    between atoms: _367  and  _370
REMARK  150  A    between atoms: _370  and  _371
REMARK  151  A    between atoms: _374  and  _376
REMARK  152  A    between atoms: _376  and  _377
REMARK  153  A    between atoms: _376  and  _379
REMARK  154  A    between atoms: _379  and  _380
REMARK  155  A    between atoms: _385  and  _387
REMARK  156  A    between atoms: _387  and  _388
REMARK  157  A    between atoms: _387  and  _390
REMARK  158  A    between atoms: _390  and  _391
REMARK  159  A    between atoms: _394  and  _396
REMARK  160  A    between atoms: _396  and  _397
REMARK  161  A    between atoms: _396  and  _399
REMARK  162  A    between atoms: _399  and  _400
REMARK  163  A    between atoms: _405  and  _407
REMARK  164  A    between atoms: _407  and  _408
REMARK  165  A    between atoms: _407  and  _410
REMARK  166  A    between atoms: _410  and  _411
REMARK  167  A    between atoms: _411  and  _480
REMARK  168  A    between atoms: _412  and  _414
REMARK  169  A    between atoms: _414  and  _415
REMARK  170  A    between atoms: _414  and  _417
REMARK  171  A    between atoms: _417  and  _418
REMARK  172  A    between atoms: _423  and  _424
REMARK  173  A    between atoms: _426  and  _428
REMARK  174  A    between atoms: _428  and  _429
REMARK  175  A    between atoms: _428  and  _431
REMARK  176  A    between atoms: _431  and  _432
REMARK  177  A    between atoms: _432  and  _433
REMARK  178  A    between atoms: _433  and  _434
REMARK  179  A    between atoms: _443  and  _445
REMARK  180  A    between atoms: _445  and  _446
REMARK  181  A    between atoms: _445  and  _448
REMARK  182  A    between atoms: _448  and  _449
REMARK  183  A    between atoms: _452  and  _454
REMARK  184  A    between atoms: _454  and  _455
REMARK  185  A    between atoms: _454  and  _457
REMARK  186  A    between atoms: _457  and  _458
REMARK  187  A    between atoms: _458  and  _459
REMARK  188  A    between atoms: _459  and  _460
REMARK  189  A    between atoms: _460  and  _461
REMARK  190  A    between atoms: _465  and  _467
REMARK  191  A    between atoms: _467  and  _468
REMARK  192  A    between atoms: _467  and  _470
REMARK  193  A    between atoms: _470  and  _471
REMARK  194  A    between atoms: _474  and  _476
REMARK  195  A    between atoms: _476  and  _477
REMARK  196  A    between atoms: _476  and  _479
REMARK  197  A    between atoms: _479  and  _480
REMARK  198  A    between atoms: _481  and  _483
REMARK  199  A    between atoms: _483  and  _484
REMARK  200  A    between atoms: _483  and  _486
REMARK  201  A    between atoms: _486  and  _487
REMARK  202  A    between atoms: _490  and  _492
REMARK  203  A    between atoms: _492  and  _493
REMARK  204  A    between atoms: _496  and  _498
REMARK  205  A    between atoms: _498  and  _499
REMARK  206  A    between atoms: _502  and  _504
REMARK  207  A    between atoms: _504  and  _505
REMARK  208  A    between atoms: _504  and  _507
REMARK  209  A    between atoms: _507  and  _508
REMARK  210  A    between atoms: _514  and  _516
REMARK  211  A    between atoms: _516  and  _517
REMARK  212  A    between atoms: _516  and  _519
REMARK  213  A    between atoms: _519  and  _520
REMARK  214  A    between atoms: _522  and  _524
REMARK  215  A    between atoms: _524  and  _525
REMARK  216  A    between atoms: _524  and  _527
REMARK  217  A    between atoms: _527  and  _528
REMARK  218  A    between atoms: _530  and  _532
REMARK  219  A    between atoms: _532  and  _533
REMARK  220  A    between atoms: _532  and  _535
REMARK  221  A    between atoms: _535  and  _536
REMARK  222  A    between atoms: _536  and  _537
REMARK  223  A    between atoms: _537  and  _538
REMARK  224  A    between atoms: _547  and  _549
REMARK  225  A    between atoms: _549  and  _550
REMARK  226  A    between atoms: _553  and  _555
REMARK  227  A    between atoms: _555  and  _556
REMARK  228  A    between atoms: _555  and  _558
REMARK  229  A    between atoms: _558  and  _559
REMARK  230  A    between atoms: _562  and  _564
REMARK  231  A    between atoms: _564  and  _565
REMARK  232  A    between atoms: _564  and  _567
REMARK  233  A    between atoms: _567  and  _568
REMARK  234  A    between atoms: _578  and  _580
REMARK  235  A    between atoms: _580  and  _581
REMARK  236  A    between atoms: _580  and  _583
REMARK  237  A    between atoms: _583  and  _584
REMARK  238  A    between atoms: _584  and  _585
REMARK  239  A    between atoms: _590  and  _592
REMARK  240  A    between atoms: _592  and  _593
REMARK  241  A    between atoms: _592  and  _595
REMARK  242  A    between atoms: _595  and  _596
REMARK  243  A    between atoms: _602  and  _604
REMARK  244  A    between atoms: _604  and  _605
REMARK  245  A    between atoms: _604  and  _607
REMARK  246  A    between atoms: _607  and  _608
REMARK  247  A    between atoms: _608  and  _609
REMARK  248  A    between atoms: _609  and  _610
REMARK  249  A    between atoms: _619  and  _621
REMARK  250  A    between atoms: _621  and  _622
REMARK  251  A    between atoms: _621  and  _624
REMARK  252  A    between atoms: _624  and  _625
REMARK  253  A    between atoms: _627  and  _629
REMARK  254  A    between atoms: _629  and  _630
REMARK  255  A    between atoms: _629  and  _632
REMARK  256  A    between atoms: _632  and  _633
REMARK  257  A    between atoms: _633  and  _634
REMARK  258  A    between atoms: _636  and  _638
REMARK  259  A    between atoms: _638  and  _639
REMARK  260  A    between atoms: _638  and  _641
REMARK  261  A    between atoms: _641  and  _642
REMARK  262  A    between atoms: _645  and  _647
REMARK  263  A    between atoms: _647  and  _648
REMARK  264  A    between atoms: _647  and  _650
REMARK  265  A    between atoms: _650  and  _651
REMARK  266  A    between atoms: _651  and  _652
REMARK  267  A    between atoms: _652  and  _653
REMARK  268  A    between atoms: _653  and  _654
REMARK  269  A    between atoms: _658  and  _660
REMARK  270  A    between atoms: _660  and  _661
REMARK  271  A    between atoms: _660  and  _663
REMARK  272  A    between atoms: _663  and  _664
REMARK  273  A    between atoms: _670  and  _671
REMARK  274  A    between atoms: _676  and  _678
REMARK  275  A    between atoms: _678  and  _679
REMARK  276  A    between atoms: _678  and  _681
REMARK  277  A    between atoms: _681  and  _682
REMARK  278  A    between atoms: _685  and  _687
REMARK  279  A    between atoms: _687  and  _688
REMARK  280  A    between atoms: _687  and  _690
REMARK  281  A    between atoms: _690  and  _691
REMARK  282  A    between atoms: _691  and  _692
REMARK  283  A    between atoms: _694  and  _696
REMARK  284  A    between atoms: _696  and  _697
REMARK  285  A    between atoms: _696  and  _699
REMARK  286  A    between atoms: _699  and  _700
REMARK  287  A    between atoms: _703  and  _705
REMARK  288  A    between atoms: _705  and  _706
REMARK  289  A    between atoms: _705  and  _708
REMARK  290  A    between atoms: _708  and  _709
REMARK  291  A    between atoms: _715  and  _717
REMARK  292  A    between atoms: _717  and  _718
REMARK  293  A    between atoms: _717  and  _720
REMARK  294  A    between atoms: _720  and  _721
REMARK  295  A    between atoms: _726  and  _728
REMARK  296  A    between atoms: _728  and  _729
REMARK  297  A    between atoms: _728  and  _731
REMARK  298  A    between atoms: _731  and  _732
REMARK  299  A    between atoms: _737  and  _739
REMARK  300  A    between atoms: _739  and  _740
REMARK  301  A    between atoms: _739  and  _742
REMARK  302  A    between atoms: _742  and  _743
REMARK  303  A    between atoms: _743  and  _755
REMARK  304  A    between atoms: _744  and  _746
REMARK  305  A    between atoms: _746  and  _747
REMARK  306  A    between atoms: _749  and  _751
REMARK  307  A    between atoms: _751  and  _752
REMARK  308  A    between atoms: _751  and  _754
REMARK  309  A    between atoms: _754  and  _755
REMARK  310  A    between atoms: _756  and  _758
REMARK  311  A    between atoms: _758  and  _759
REMARK  312  A    between atoms: _758  and  _761
REMARK  313  A    between atoms: _761  and  _762
REMARK  314  A    between atoms: _767  and  _769
REMARK  315  A    between atoms: _769  and  _770
REMARK  316  A    between atoms: _769  and  _772
REMARK  317  A    between atoms: _772  and  _773
REMARK  318  A    between atoms: _778  and  _779
REMARK  319  A    between atoms: _781  and  _783
REMARK  320  A    between atoms: _783  and  _784
REMARK  321  A    between atoms: _783  and  _786
REMARK  322  A    between atoms: _786  and  _787
REMARK                            x       y       z     vdW  Elec       q    Type
REMARK                         _______ _______ _______ _____ _____    ______ ____
ROOT
ATOM      1  O   HOH     1      23.390  12.032   7.292  0.00  0.00    +0.000 OA
ENDROOT
TORSDOF 0
REMARK  Name = ../refined-set-2016/1hn4/1hn4_pocket.pdb
REMARK  322 active torsions:
REMARK  status: ('A' for Active; 'I' for Inactive)
REMARK    1  A    between atoms: _1  and  _5
REMARK    2  A    between atoms: _5  and  _6
REMARK    3  A    between atoms: _8  and  _10
REMARK    4  A    between atoms: _10  and  _11
REMARK    5  A    between atoms: _10  and  _13
REMARK    6  A    between atoms: _13  and  _14
REMARK    7  A    between atoms: _17  and  _19
REMARK    8  A    between atoms: _19  and  _20
REMARK    9  A    between atoms: _19  and  _22
REMARK   10  A    between atoms: _22  and  _23
REMARK   11  A    between atoms: _25  and  _27
REMARK   12  A    between atoms: _27  and  _28
REMARK   13  A    between atoms: _27  and  _30
REMARK   14  A    between atoms: _30  and  _31
REMARK   15  A    between atoms: _33  and  _35
REMARK   16  A    between atoms: _35  and  _36
REMARK   17  A    between atoms: _35  and  _38
REMARK   18  A    between atoms: _38  and  _39
REMARK   19  A    between atoms: _39  and  _40
REMARK   20  A    between atoms: _40  and  _41
REMARK   21  A    between atoms: _50  and  _52
REMARK   22  A    between atoms: _52  and  _53
REMARK   23  A    between atoms: _56  and  _58
REMARK   24  A    between atoms: _58  and  _59
REMARK   25  A    between atoms: _58  and  _61
REMARK   26  A    between atoms: _61  and  _62
REMARK   27  A    between atoms: _65  and  _67
REMARK   28  A    between atoms: _67  and  _68
REMARK   29  A    between atoms: _67  and  _70
REMARK   30  A    between atoms: _70  and  _71
REMARK   31  A    between atoms: _81  and  _83
REMARK   32  A    between atoms: _83  and  _84
REMARK   33  A    between atoms: _83  and  _86
REMARK   34  A    between atoms: _86  and  _87
REMARK   35  A    between atoms: _87  and  _88
REMARK   36  A    between atoms: _93  and  _95
REMARK   37  A    between atoms: _95  and  _96
REMARK   38  A    between atoms: _95  and  _98
REMARK   39  A    between atoms: _98  and  _99
REMARK   40  A    between atoms: _105  and  _107
REMARK   41  A    between atoms: _107  and  _108
REMARK   42  A    between atoms: _107  and  _110
REMARK   43  A    between atoms: _110  and  _111
REMARK   44  A    between atoms: _111  and  _112
REMARK   45  A    between atoms: _112  and  _113
REMARK   46  A    between atoms: _122  and  _124
REMARK   47  A    between atoms: _124  and  _125
REMARK   48  A    between atoms: _124  and  _127
REMARK   49  A    between atoms: _127  and  _128
REMARK   50  A    between atoms: _130  and  _132
REMARK   51  A    between atoms: _132  and  _133
REMARK   52  A    between atoms: _132  and  _135
REMARK   53  A    between atoms: _135  and  _136
REMARK   54  A    between atoms: _136  and  _137
REMARK   55  A    between atoms: _139  and  _141
REMARK   56  A    between atoms: _141  and  _142
REMARK   57  A    between atoms: _141  and  _144
REMARK   58  A    between atoms: _144  and  _145
REMARK   59  A    between atoms: _148  and  _150
REMARK   60  A    between atoms: _150  and  _151
REMARK   61  A    between atoms: _150  and  _153
REMARK   62  A    between atoms: _153  and  _154
REMARK   63  A    between atoms: _154  and  _155
REMARK   64  A    between atoms: _155  and  _156
REMARK   65  A    between atoms: _156  and  _157
REMARK   66  A    between atoms: _161  and  _163
REMARK   67  A    between atoms: _163  and  _164
REMARK   68  A    between atoms: _163  and  _166
REMARK   69  A    between atoms: _166  and  _167
REMARK   70  A    between atoms: _173  and  _174
REMARK   71  A    between atoms: _179  and  _181
REMARK   72  A    between atoms: _181  and  _182
REMARK   73  A    between atoms: _181  and  _184
REMARK   74  A    between atoms: _184  and  _185
REMARK   75  A    between atoms: _188  and  _190
REMARK   76  A    between atoms: _190  and  _191
REMARK   77  A    between atoms: _190  and  _193
REMARK   78  A    between atoms: _193  and  _194
REMARK   79  A    between atoms: _194  and  _195
REMARK   80  A    between atoms: _197  and  _199
REMARK   81  A    between atoms: _199  and  _200
REMARK   82  A    between atoms: _199  and  _202
REMARK   83  A    between atoms: _202  and  _203
REMARK   84  A    between atoms: _206  and  _208
REMARK   85  A    between atoms: _208  and  _209
REMARK   86  A    between atoms: _208  and  _211
REMARK   87  A    between atoms: _211  and  _212
REMARK   88  A    between atoms: _218  and  _220
REMARK   89  A    between atoms: _220  and  _221
REMARK   90  A    between atoms: _220  and  _223
REMARK   91  A    between atoms: _223  and  _224
REMARK   92  A    between atoms: _229  and  _231
REMARK   93  A    between atoms: _231  and  _232
REMARK   94  A    between atoms: _231  and  _234
REMARK   95  A    between atoms: _234  and  _235
REMARK   96  A    between atoms: _240  and  _242
REMARK   97  A    between atoms: _242  and  _243
REMARK   98  A    between atoms: _242  and  _245
REMARK   99  A    between atoms: _245  and  _246
REMARK  100  A    between atoms: _251  and  _252
REMARK  101  A    between atoms: _254  and  _256
REMARK  102  A    between atoms: _256  and  _257
REMARK  103  A    between atoms: _256  and  _259
REMARK  104  A    between atoms: _261  and  _263
REMARK  105  A    between atoms: _263  and  _264
REMARK  106  A    between atoms: _263  and  _266
REMARK  107  A    between atoms: _266  and  _267
REMARK  108  A    between atoms: _272  and  _273
REMARK  109  A    between atoms: _277  and  _280
REMARK  110  A    between atoms: _280  and  _281
REMARK  111  A    between atoms: _281  and  _354
REMARK  112  A    between atoms: _285  and  _287
REMARK  113  A    between atoms: _287  and  _289
REMARK  114  A    between atoms: _289  and  _290
REMARK  115  A    between atoms: _289  and  _292
REMARK  116  A    between atoms: _292  and  _293
REMARK  117  A    between atoms: _296  and  _298
REMARK  118  A    between atoms: _298  and  _299
REMARK  119  A    between atoms: _301  and  _303
REMARK  120  A    between atoms: _303  and  _304
REMARK  121  A    between atoms: _306  and  _308
REMARK  122  A    between atoms: _308  and  _309
REMARK  123  A    between atoms: _308  and  _311
REMARK  124  A    between atoms: _311  and  _312
REMARK  125  A    between atoms: _315  and  _317
REMARK  126  A    between atoms: _317  and  _318
REMARK  127  A    between atoms: _317  and  _320
REMARK  128  A    between atoms: _320  and  _321
REMARK  129  A    between atoms: _324  and  _326
REMARK  130  A    between atoms: _326  and  _327
REMARK  131  A    between atoms: _326  and  _329
REMARK  132  A    between atoms: _329  and  _330
REMARK  133  A    between atoms: _330  and  _331
REMARK  134  A    between atoms: _331  and  _332
REMARK  135  A    between atoms: _341  and  _343
REMARK  136  A    between atoms: _343  and  _344
REMARK  137  A    between atoms: _343  and  _346
REMARK  138  A    between atoms: _348  and  _350
REMARK  139  A    between atoms: _350  and  _351
REMARK  140  A    between atoms: _350  and  _353
REMARK  141  A    between atoms: _353  and  _354
REMARK  142  A    between atoms: _355  and  _357
REMARK  143  A    between atoms: _357  and  _358
REMARK  144  A    between atoms: _357  and  _360
REMARK  145  A    between atoms: _360  and  _361
REMARK  146  A    between atoms: _361  and  _362
REMARK  147  A    between atoms: _365  and  _367
REMARK  148  A    between atoms: _367  and  _368
REMARK  149  A    between atoms: _367  and  _370
REMARK  150  A    between atoms: _370  and  _371
REMARK  151  A    between atoms: _374  and  _376
REMARK  152  A    between atoms: _376  and  _377
REMARK  153  A    between atoms: _376  and  _379
REMARK  154  A    between atoms: _379  and  _380
REMARK  155  A    between atoms: _385  and  _387
REMARK  156  A    between atoms: _387  and  _388
REMARK  157  A    between atoms: _387  and  _390
REMARK  158  A    between atoms: _390  and  _391
REMARK  159  A    between atoms: _394  and  _396
REMARK  160  A    between atoms: _396  and  _397
REMARK  161  A    between atoms: _396  and  _399
REMARK  162  A    between atoms: _399  and  _400
REMARK  163  A    between atoms: _405  and  _407
REMARK  164  A    between atoms: _407  and  _408
REMARK  165  A    between atoms: _407  and  _410
REMARK  166  A    between atoms: _410  and  _411
REMARK  167  A    between atoms: _411  and  _480
REMARK  168  A    between atoms: _412  and  _414
REMARK  169  A    between atoms: _414  and  _415
REMARK  170  A    between atoms: _414  and  _417
REMARK  171  A    between atoms: _417  and  _418
REMARK  172  A    between atoms: _423  and  _424
REMARK  173  A    between atoms: _426  and  _428
REMARK  174  A    between atoms: _428  and  _429
REMARK  175  A    between atoms: _428  and  _431
REMARK  176  A    between atoms: _431  and  _432
REMARK  177  A    between atoms: _432  and  _433
REMARK  178  A    between atoms: _433  and  _434
REMARK  179  A    between atoms: _443  and  _445
REMARK  180  A    between atoms: _445  and  _446
REMARK  181  A    between atoms: _445  and  _448
REMARK  182  A    between atoms: _448  and  _449
REMARK  183  A    between atoms: _452  and  _454
REMARK  184  A    between atoms: _454  and  _455
REMARK  185  A    between atoms: _454  and  _457
REMARK  186  A    between atoms: _457  and  _458
REMARK  187  A    between atoms: _458  and  _459
REMARK  188  A    between atoms: _459  and  _460
REMARK  189  A    between atoms: _460  and  _461
REMARK  190  A    between atoms: _465  and  _467
REMARK  191  A    between atoms: _467  and  _468
REMARK  192  A    between atoms: _467  and  _470
REMARK  193  A    between atoms: _470  and  _471
REMARK  194  A    between atoms: _474  and  _476
REMARK  195  A    between atoms: _476  and  _477
REMARK  196  A    between atoms: _476  and  _479
REMARK  197  A    between atoms: _479  and  _480
REMARK  198  A    between atoms: _481  and  _483
REMARK  199  A    between atoms: _483  and  _484
REMARK  200  A    between atoms: _483  and  _486
REMARK  201  A    between atoms: _486  and  _487
REMARK  202  A    between atoms: _490  and  _492
REMARK  203  A    between atoms: _492  and  _493
REMARK  204  A    between atoms: _496  and  _498
REMARK  205  A    between atoms: _498  and  _499
REMARK  206  A    between atoms: _502  and  _504
REMARK  207  A    between atoms: _504  and  _505
REMARK  208  A    between atoms: _504  and  _507
REMARK  209  A    between atoms: _507  and  _508
REMARK  210  A    between atoms: _514  and  _516
REMARK  211  A    between atoms: _516  and  _517
REMARK  212  A    between atoms: _516  and  _519
REMARK  213  A    between atoms: _519  and  _520
REMARK  214  A    between atoms: _522  and  _524
REMARK  215  A    between atoms: _524  and  _525
REMARK  216  A    between atoms: _524  and  _527
REMARK  217  A    between atoms: _527  and  _528
REMARK  218  A    between atoms: _530  and  _532
REMARK  219  A    between atoms: _532  and  _533
REMARK  220  A    between atoms: _532  and  _535
REMARK  221  A    between atoms: _535  and  _536
REMARK  222  A    between atoms: _536  and  _537
REMARK  223  A    between atoms: _537  and  _538
REMARK  224  A    between atoms: _547  and  _549
REMARK  225  A    between atoms: _549  and  _550
REMARK  226  A    between atoms: _553  and  _555
REMARK  227  A    between atoms: _555  and  _556
REMARK  228  A    between atoms: _555  and  _558
REMARK  229  A    between atoms: _558  and  _559
REMARK  230  A    between atoms: _562  and  _564
REMARK  231  A    between atoms: _564  and  _565
REMARK  232  A    between atoms: _564  and  _567
REMARK  233  A    between atoms: _567  and  _568
REMARK  234  A    between atoms: _578  and  _580
REMARK  235  A    between atoms: _580  and  _581
REMARK  236  A    between atoms: _580  and  _583
REMARK  237  A    between atoms: _583  and  _584
REMARK  238  A    between atoms: _584  and  _585
REMARK  239  A    between atoms: _590  and  _592
REMARK  240  A    between atoms: _592  and  _593
REMARK  241  A    between atoms: _592  and  _595
REMARK  242  A    between atoms: _595  and  _596
REMARK  243  A    between atoms: _602  and  _604
REMARK  244  A    between atoms: _604  and  _605
REMARK  245  A    between atoms: _604  and  _607
REMARK  246  A    between atoms: _607  and  _608
REMARK  247  A    between atoms: _608  and  _609
REMARK  248  A    between atoms: _609  and  _610
REMARK  249  A    between atoms: _619  and  _621
REMARK  250  A    between atoms: _621  and  _622
REMARK  251  A    between atoms: _621  and  _624
REMARK  252  A    between atoms: _624  and  _625
REMARK  253  A    between atoms: _627  and  _629
REMARK  254  A    between atoms: _629  and  _630
REMARK  255  A    between atoms: _629  and  _632
REMARK  256  A    between atoms: _632  and  _633
REMARK  257  A    between atoms: _633  and  _634
REMARK  258  A    between atoms: _636  and  _638
REMARK  259  A    between atoms: _638  and  _639
REMARK  260  A    between atoms: _638  and  _641
REMARK  261  A    between atoms: _641  and  _642
REMARK  262  A    between atoms: _645  and  _647
REMARK  263  A    between atoms: _647  and  _648
REMARK  264  A    between atoms: _647  and  _650
REMARK  265  A    between atoms: _650  and  _651
REMARK  266  A    between atoms: _651  and  _652
REMARK  267  A    between atoms: _652  and  _653
REMARK  268  A    between atoms: _653  and  _654
REMARK  269  A    between atoms: _658  and  _660
REMARK  270  A    between atoms: _660  and  _661
REMARK  271  A    between atoms: _660  and  _663
REMARK  272  A    between atoms: _663  and  _664
REMARK  273  A    between atoms: _670  and  _671
REMARK  274  A    between atoms: _676  and  _678
REMARK  275  A    between atoms: _678  and  _679
REMARK  276  A    between atoms: _678  and  _681
REMARK  277  A    between atoms: _681  and  _682
REMARK  278  A    between atoms: _685  and  _687
REMARK  279  A    between atoms: _687  and  _688
REMARK  280  A    between atoms: _687  and  _690
REMARK  281  A    between atoms: _690  and  _691
REMARK  282  A    between atoms: _691  and  _692
REMARK  283  A    between atoms: _694  and  _696
REMARK  284  A    between atoms: _696  and  _697
REMARK  285  A    between atoms: _696  and  _699
REMARK  286  A    between atoms: _699  and  _700
REMARK  287  A    between atoms: _703  and  _705
REMARK  288  A    between atoms: _705  and  _706
REMARK  289  A    between atoms: _705  and  _708
REMARK  290  A    between atoms: _708  and  _709
REMARK  291  A    between atoms: _715  and  _717
REMARK  292  A    between atoms: _717  and  _718
REMARK  293  A    between atoms: _717  and  _720
REMARK  294  A    between atoms: _720  and  _721
REMARK  295  A    between atoms: _726  and  _728
REMARK  296  A    between atoms: _728  and  _729
REMARK  297  A    between atoms: _728  and  _731
REMARK  298  A    between atoms: _731  and  _732
REMARK  299  A    between atoms: _737  and  _739
REMARK  300  A    between atoms: _739  and  _740
REMARK  301  A    between atoms: _739  and  _742
REMARK  302  A    between atoms: _742  and  _743
REMARK  303  A    between atoms: _743  and  _755
REMARK  304  A    between atoms: _744  and  _746
REMARK  305  A    between atoms: _746  and  _747
REMARK  306  A    between atoms: _749  and  _751
REMARK  307  A    between atoms: _751  and  _752
REMARK  308  A    between atoms: _751  and  _754
REMARK  309  A    between atoms: _754  and  _755
REMARK  310  A    between atoms: _756  and  _758
REMARK  311  A    between atoms: _758  and  _759
REMARK  312  A    between atoms: _758  and  _761
REMARK  313  A    between atoms: _761  and  _762
REMARK  314  A    between atoms: _767  and  _769
REMARK  315  A    between atoms: _769  and  _770
REMARK  316  A    between atoms: _769  and  _772
REMARK  317  A    between atoms: _772  and  _773
REMARK  318  A    between atoms: _778  and  _779
REMARK  319  A    between atoms: _781  and  _783
REMARK  320  A    between atoms: _783  and  _784
REMARK  321  A    between atoms: _783  and  _786
REMARK  322  A    between atoms: _786  and  _787
REMARK                            x       y       z     vdW  Elec       q    Type
REMARK                         _______ _______ _______ _____ _____    ______ ____
ROOT
ATOM      1  O   HOH     1      25.418  13.758   6.163  0.00  0.00    +0.000 OA
ENDROOT
TORSDOF 0
REMARK  Name = ../refined-set-2016/1hn4/1hn4_pocket.pdb
REMARK  322 active torsions:
REMARK  status: ('A' for Active; 'I' for Inactive)
REMARK    1  A    between atoms: _1  and  _5
REMARK    2  A    between atoms: _5  and  _6
REMARK    3  A    between atoms: _8  and  _10
REMARK    4  A    between atoms: _10  and  _11
REMARK    5  A    between atoms: _10  and  _13
REMARK    6  A    between atoms: _13  and  _14
REMARK    7  A    between atoms: _17  and  _19
REMARK    8  A    between atoms: _19  and  _20
REMARK    9  A    between atoms: _19  and  _22
REMARK   10  A    between atoms: _22  and  _23
REMARK   11  A    between atoms: _25  and  _27
REMARK   12  A    between atoms: _27  and  _28
REMARK   13  A    between atoms: _27  and  _30
REMARK   14  A    between atoms: _30  and  _31
REMARK   15  A    between atoms: _33  and  _35
REMARK   16  A    between atoms: _35  and  _36
REMARK   17  A    between atoms: _35  and  _38
REMARK   18  A    between atoms: _38  and  _39
REMARK   19  A    between atoms: _39  and  _40
REMARK   20  A    between atoms: _40  and  _41
REMARK   21  A    between atoms: _50  and  _52
REMARK   22  A    between atoms: _52  and  _53
REMARK   23  A    between atoms: _56  and  _58
REMARK   24  A    between atoms: _58  and  _59
REMARK   25  A    between atoms: _58  and  _61
REMARK   26  A    between atoms: _61  and  _62
REMARK   27  A    between atoms: _65  and  _67
REMARK   28  A    between atoms: _67  and  _68
REMARK   29  A    between atoms: _67  and  _70
REMARK   30  A    between atoms: _70  and  _71
REMARK   31  A    between atoms: _81  and  _83
REMARK   32  A    between atoms: _83  and  _84
REMARK   33  A    between atoms: _83  and  _86
REMARK   34  A    between atoms: _86  and  _87
REMARK   35  A    between atoms: _87  and  _88
REMARK   36  A    between atoms: _93  and  _95
REMARK   37  A    between atoms: _95  and  _96
REMARK   38  A    between atoms: _95  and  _98
REMARK   39  A    between atoms: _98  and  _99
REMARK   40  A    between atoms: _105  and  _107
REMARK   41  A    between atoms: _107  and  _108
REMARK   42  A    between atoms: _107  and  _110
REMARK   43  A    between atoms: _110  and  _111
REMARK   44  A    between atoms: _111  and  _112
REMARK   45  A    between atoms: _112  and  _113
REMARK   46  A    between atoms: _122  and  _124
REMARK   47  A    between atoms: _124  and  _125
REMARK   48  A    between atoms: _124  and  _127
REMARK   49  A    between atoms: _127  and  _128
REMARK   50  A    between atoms: _130  and  _132
REMARK   51  A    between atoms: _132  and  _133
REMARK   52  A    between atoms: _132  and  _135
REMARK   53  A    between atoms: _135  and  _136
REMARK   54  A    between atoms: _136  and  _137
REMARK   55  A    between atoms: _139  and  _141
REMARK   56  A    between atoms: _141  and  _142
REMARK   57  A    between atoms: _141  and  _144
REMARK   58  A    between atoms: _144  and  _145
REMARK   59  A    between atoms: _148  and  _150
REMARK   60  A    between atoms: _150  and  _151
REMARK   61  A    between atoms: _150  and  _153
REMARK   62  A    between atoms: _153  and  _154
REMARK   63  A    between atoms: _154  and  _155
REMARK   64  A    between atoms: _155  and  _156
REMARK   65  A    between atoms: _156  and  _157
REMARK   66  A    between atoms: _161  and  _163
REMARK   67  A    between atoms: _163  and  _164
REMARK   68  A    between atoms: _163  and  _166
REMARK   69  A    between atoms: _166  and  _167
REMARK   70  A    between atoms: _173  and  _174
REMARK   71  A    between atoms: _179  and  _181
REMARK   72  A    between atoms: _181  and  _182
REMARK   73  A    between atoms: _181  and  _184
REMARK   74  A    between atoms: _184  and  _185
REMARK   75  A    between atoms: _188  and  _190
REMARK   76  A    between atoms: _190  and  _191
REMARK   77  A    between atoms: _190  and  _193
REMARK   78  A    between atoms: _193  and  _194
REMARK   79  A    between atoms: _194  and  _195
REMARK   80  A    between atoms: _197  and  _199
REMARK   81  A    between atoms: _199  and  _200
REMARK   82  A    between atoms: _199  and  _202
REMARK   83  A    between atoms: _202  and  _203
REMARK   84  A    between atoms: _206  and  _208
REMARK   85  A    between atoms: _208  and  _209
REMARK   86  A    between atoms: _208  and  _211
REMARK   87  A    between atoms: _211  and  _212
REMARK   88  A    between atoms: _218  and  _220
REMARK   89  A    between atoms: _220  and  _221
REMARK   90  A    between atoms: _220  and  _223
REMARK   91  A    between atoms: _223  and  _224
REMARK   92  A    between atoms: _229  and  _231
REMARK   93  A    between atoms: _231  and  _232
REMARK   94  A    between atoms: _231  and  _234
REMARK   95  A    between atoms: _234  and  _235
REMARK   96  A    between atoms: _240  and  _242
REMARK   97  A    between atoms: _242  and  _243
REMARK   98  A    between atoms: _242  and  _245
REMARK   99  A    between atoms: _245  and  _246
REMARK  100  A    between atoms: _251  and  _252
REMARK  101  A    between atoms: _254  and  _256
REMARK  102  A    between atoms: _256  and  _257
REMARK  103  A    between atoms: _256  and  _259
REMARK  104  A    between atoms: _261  and  _263
REMARK  105  A    between atoms: _263  and  _264
REMARK  106  A    between atoms: _263  and  _266
REMARK  107  A    between atoms: _266  and  _267
REMARK  108  A    between atoms: _272  and  _273
REMARK  109  A    between atoms: _277  and  _280
REMARK  110  A    between atoms: _280  and  _281
REMARK  111  A    between atoms: _281  and  _354
REMARK  112  A    between atoms: _285  and  _287
REMARK  113  A    between atoms: _287  and  _289
REMARK  114  A    between atoms: _289  and  _290
REMARK  115  A    between atoms: _289  and  _292
REMARK  116  A    between atoms: _292  and  _293
REMARK  117  A    between atoms: _296  and  _298
REMARK  118  A    between atoms: _298  and  _299
REMARK  119  A    between atoms: _301  and  _303
REMARK  120  A    between atoms: _303  and  _304
REMARK  121  A    between atoms: _306  and  _308
REMARK  122  A    between atoms: _308  and  _309
REMARK  123  A    between atoms: _308  and  _311
REMARK  124  A    between atoms: _311  and  _312
REMARK  125  A    between atoms: _315  and  _317
REMARK  126  A    between atoms: _317  and  _318
REMARK  127  A    between atoms: _317  and  _320
REMARK  128  A    between atoms: _320  and  _321
REMARK  129  A    between atoms: _324  and  _326
REMARK  130  A    between atoms: _326  and  _327
REMARK  131  A    between atoms: _326  and  _329
REMARK  132  A    between atoms: _329  and  _330
REMARK  133  A    between atoms: _330  and  _331
REMARK  134  A    between atoms: _331  and  _332
REMARK  135  A    between atoms: _341  and  _343
REMARK  136  A    between atoms: _343  and  _344
REMARK  137  A    between atoms: _343  and  _346
REMARK  138  A    between atoms: _348  and  _350
REMARK  139  A    between atoms: _350  and  _351
REMARK  140  A    between atoms: _350  and  _353
REMARK  141  A    between atoms: _353  and  _354
REMARK  142  A    between atoms: _355  and  _357
REMARK  143  A    between atoms: _357  and  _358
REMARK  144  A    between atoms: _357  and  _360
REMARK  145  A    between atoms: _360  and  _361
REMARK  146  A    between atoms: _361  and  _362
REMARK  147  A    between atoms: _365  and  _367
REMARK  148  A    between atoms: _367  and  _368
REMARK  149  A    between atoms: _367  and  _370
REMARK  150  A    between atoms: _370  and  _371
REMARK  151  A    between atoms: _374  and  _376
REMARK  152  A    between atoms: _376  and  _377
REMARK  153  A    between atoms: _376  and  _379
REMARK  154  A    between atoms: _379  and  _380
REMARK  155  A    between atoms: _385  and  _387
REMARK  156  A    between atoms: _387  and  _388
REMARK  157  A    between atoms: _387  and  _390
REMARK  158  A    between atoms: _390  and  _391
REMARK  159  A    between atoms: _394  and  _396
REMARK  160  A    between atoms: _396  and  _397
REMARK  161  A    between atoms: _396  and  _399
REMARK  162  A    between atoms: _399  and  _400
REMARK  163  A    between atoms: _405  and  _407
REMARK  164  A    between atoms: _407  and  _408
REMARK  165  A    between atoms: _407  and  _410
REMARK  166  A    between atoms: _410  and  _411
REMARK  167  A    between atoms: _411  and  _480
REMARK  168  A    between atoms: _412  and  _414
REMARK  169  A    between atoms: _414  and  _415
REMARK  170  A    between atoms: _414  and  _417
REMARK  171  A    between atoms: _417  and  _418
REMARK  172  A    between atoms: _423  and  _424
REMARK  173  A    between atoms: _426  and  _428
REMARK  174  A    between atoms: _428  and  _429
REMARK  175  A    between atoms: _428  and  _431
REMARK  176  A    between atoms: _431  and  _432
REMARK  177  A    between atoms: _432  and  _433
REMARK  178  A    between atoms: _433  and  _434
REMARK  179  A    between atoms: _443  and  _445
REMARK  180  A    between atoms: _445  and  _446
REMARK  181  A    between atoms: _445  and  _448
REMARK  182  A    between atoms: _448  and  _449
REMARK  183  A    between atoms: _452  and  _454
REMARK  184  A    between atoms: _454  and  _455
REMARK  185  A    between atoms: _454  and  _457
REMARK  186  A    between atoms: _457  and  _458
REMARK  187  A    between atoms: _458  and  _459
REMARK  188  A    between atoms: _459  and  _460
REMARK  189  A    between atoms: _460  and  _461
REMARK  190  A    between atoms: _465  and  _467
REMARK  191  A    between atoms: _467  and  _468
REMARK  192  A    between atoms: _467  and  _470
REMARK  193  A    between atoms: _470  and  _471
REMARK  194  A    between atoms: _474  and  _476
REMARK  195  A    between atoms: _476  and  _477
REMARK  196  A    between atoms: _476  and  _479
REMARK  197  A    between atoms: _479  and  _480
REMARK  198  A    between atoms: _481  and  _483
REMARK  199  A    between atoms: _483  and  _484
REMARK  200  A    between atoms: _483  and  _486
REMARK  201  A    between atoms: _486  and  _487
REMARK  202  A    between atoms: _490  and  _492
REMARK  203  A    between atoms: _492  and  _493
REMARK  204  A    between atoms: _496  and  _498
REMARK  205  A    between atoms: _498  and  _499
REMARK  206  A    between atoms: _502  and  _504
REMARK  207  A    between atoms: _504  and  _505
REMARK  208  A    between atoms: _504  and  _507
REMARK  209  A    between atoms: _507  and  _508
REMARK  210  A    between atoms: _514  and  _516
REMARK  211  A    between atoms: _516  and  _517
REMARK  212  A    between atoms: _516  and  _519
REMARK  213  A    between atoms: _519  and  _520
REMARK  214  A    between atoms: _522  and  _524
REMARK  215  A    between atoms: _524  and  _525
REMARK  216  A    between atoms: _524  and  _527
REMARK  217  A    between atoms: _527  and  _528
REMARK  218  A    between atoms: _530  and  _532
REMARK  219  A    between atoms: _532  and  _533
REMARK  220  A    between atoms: _532  and  _535
REMARK  221  A    between atoms: _535  and  _536
REMARK  222  A    between atoms: _536  and  _537
REMARK  223  A    between atoms: _537  and  _538
REMARK  224  A    between atoms: _547  and  _549
REMARK  225  A    between atoms: _549  and  _550
REMARK  226  A    between atoms: _553  and  _555
REMARK  227  A    between atoms: _555  and  _556
REMARK  228  A    between atoms: _555  and  _558
REMARK  229  A    between atoms: _558  and  _559
REMARK  230  A    between atoms: _562  and  _564
REMARK  231  A    between atoms: _564  and  _565
REMARK  232  A    between atoms: _564  and  _567
REMARK  233  A    between atoms: _567  and  _568
REMARK  234  A    between atoms: _578  and  _580
REMARK  235  A    between atoms: _580  and  _581
REMARK  236  A    between atoms: _580  and  _583
REMARK  237  A    between atoms: _583  and  _584
REMARK  238  A    between atoms: _584  and  _585
REMARK  239  A    between atoms: _590  and  _592
REMARK  240  A    between atoms: _592  and  _593
REMARK  241  A    between atoms: _592  and  _595
REMARK  242  A    between atoms: _595  and  _596
REMARK  243  A    between atoms: _602  and  _604
REMARK  244  A    between atoms: _604  and  _605
REMARK  245  A    between atoms: _604  and  _607
REMARK  246  A    between atoms: _607  and  _608
REMARK  247  A    between atoms: _608  and  _609
REMARK  248  A    between atoms: _609  and  _610
REMARK  249  A    between atoms: _619  and  _621
REMARK  250  A    between atoms: _621  and  _622
REMARK  251  A    between atoms: _621  and  _624
REMARK  252  A    between atoms: _624  and  _625
REMARK  253  A    between atoms: _627  and  _629
REMARK  254  A    between atoms: _629  and  _630
REMARK  255  A    between atoms: _629  and  _632
REMARK  256  A    between atoms: _632  and  _633
REMARK  257  A    between atoms: _633  and  _634
REMARK  258  A    between atoms: _636  and  _638
REMARK  259  A    between atoms: _638  and  _639
REMARK  260  A    between atoms: _638  and  _641
REMARK  261  A    between atoms: _641  and  _642
REMARK  262  A    between atoms: _645  and  _647
REMARK  263  A    between atoms: _647  and  _648
REMARK  264  A    between atoms: _647  and  _650
REMARK  265  A    between atoms: _650  and  _651
REMARK  266  A    between atoms: _651  and  _652
REMARK  267  A    between atoms: _652  and  _653
REMARK  268  A    between atoms: _653  and  _654
REMARK  269  A    between atoms: _658  and  _660
REMARK  270  A    between atoms: _660  and  _661
REMARK  271  A    between atoms: _660  and  _663
REMARK  272  A    between atoms: _663  and  _664
REMARK  273  A    between atoms: _670  and  _671
REMARK  274  A    between atoms: _676  and  _678
REMARK  275  A    between atoms: _678  and  _679
REMARK  276  A    between atoms: _678  and  _681
REMARK  277  A    between atoms: _681  and  _682
REMARK  278  A    between atoms: _685  and  _687
REMARK  279  A    between atoms: _687  and  _688
REMARK  280  A    between atoms: _687  and  _690
REMARK  281  A    between atoms: _690  and  _691
REMARK  282  A    between atoms: _691  and  _692
REMARK  283  A    between atoms: _694  and  _696
REMARK  284  A    between atoms: _696  and  _697
REMARK  285  A    between atoms: _696  and  _699
REMARK  286  A    between atoms: _699  and  _700
REMARK  287  A    between atoms: _703  and  _705
REMARK  288  A    between atoms: _705  and  _706
REMARK  289  A    between atoms: _705  and  _708
REMARK  290  A    between atoms: _708  and  _709
REMARK  291  A    between atoms: _715  and  _717
REMARK  292  A    between atoms: _717  and  _718
REMARK  293  A    between atoms: _717  and  _720
REMARK  294  A    between atoms: _720  and  _721
REMARK  295  A    between atoms: _726  and  _728
REMARK  296  A    between atoms: _728  and  _729
REMARK  297  A    between atoms: _728  and  _731
REMARK  298  A    between atoms: _731  and  _732
REMARK  299  A    between atoms: _737  and  _739
REMARK  300  A    between atoms: _739  and  _740
REMARK  301  A    between atoms: _739  and  _742
REMARK  302  A    between atoms: _742  and  _743
REMARK  303  A    between atoms: _743  and  _755
REMARK  304  A    between atoms: _744  and  _746
REMARK  305  A    between atoms: _746  and  _747
REMARK  306  A    between atoms: _749  and  _751
REMARK  307  A    between atoms: _751  and  _752
REMARK  308  A    between atoms: _751  and  _754
REMARK  309  A    between atoms: _754  and  _755
REMARK  310  A    between atoms: _756  and  _758
REMARK  311  A    between atoms: _758  and  _759
REMARK  312  A    between atoms: _758  and  _761
REMARK  313  A    between atoms: _761  and  _762
REMARK  314  A    between atoms: _767  and  _769
REMARK  315  A    between atoms: _769  and  _770
REMARK  316  A    between atoms: _769  and  _772
REMARK  317  A    between atoms: _772  and  _773
REMARK  318  A    between atoms: _778  and  _779
REMARK  319  A    between atoms: _781  and  _783
REMARK  320  A    between atoms: _783  and  _784
REMARK  321  A    between atoms: _783  and  _786
REMARK  322  A    between atoms: _786  and  _787
REMARK                            x       y       z     vdW  Elec       q    Type
REMARK                         _______ _______ _______ _____ _____    ______ ____
ROOT
ATOM      1  O   HOH     1      26.852  21.011  12.589  0.00  0.00    +0.000 OA
ENDROOT
TORSDOF 0
REMARK  Name = ../refined-set-2016/1hn4/1hn4_pocket.pdb
REMARK  322 active torsions:
REMARK  status: ('A' for Active; 'I' for Inactive)
REMARK    1  A    between atoms: _1  and  _5
REMARK    2  A    between atoms: _5  and  _6
REMARK    3  A    between atoms: _8  and  _10
REMARK    4  A    between atoms: _10  and  _11
REMARK    5  A    between atoms: _10  and  _13
REMARK    6  A    between atoms: _13  and  _14
REMARK    7  A    between atoms: _17  and  _19
REMARK    8  A    between atoms: _19  and  _20
REMARK    9  A    between atoms: _19  and  _22
REMARK   10  A    between atoms: _22  and  _23
REMARK   11  A    between atoms: _25  and  _27
REMARK   12  A    between atoms: _27  and  _28
REMARK   13  A    between atoms: _27  and  _30
REMARK   14  A    between atoms: _30  and  _31
REMARK   15  A    between atoms: _33  and  _35
REMARK   16  A    between atoms: _35  and  _36
REMARK   17  A    between atoms: _35  and  _38
REMARK   18  A    between atoms: _38  and  _39
REMARK   19  A    between atoms: _39  and  _40
REMARK   20  A    between atoms: _40  and  _41
REMARK   21  A    between atoms: _50  and  _52
REMARK   22  A    between atoms: _52  and  _53
REMARK   23  A    between atoms: _56  and  _58
REMARK   24  A    between atoms: _58  and  _59
REMARK   25  A    between atoms: _58  and  _61
REMARK   26  A    between atoms: _61  and  _62
REMARK   27  A    between atoms: _65  and  _67
REMARK   28  A    between atoms: _67  and  _68
REMARK   29  A    between atoms: _67  and  _70
REMARK   30  A    between atoms: _70  and  _71
REMARK   31  A    between atoms: _81  and  _83
REMARK   32  A    between atoms: _83  and  _84
REMARK   33  A    between atoms: _83  and  _86
REMARK   34  A    between atoms: _86  and  _87
REMARK   35  A    between atoms: _87  and  _88
REMARK   36  A    between atoms: _93  and  _95
REMARK   37  A    between atoms: _95  and  _96
REMARK   38  A    between atoms: _95  and  _98
REMARK   39  A    between atoms: _98  and  _99
REMARK   40  A    between atoms: _105  and  _107
REMARK   41  A    between atoms: _107  and  _108
REMARK   42  A    between atoms: _107  and  _110
REMARK   43  A    between atoms: _110  and  _111
REMARK   44  A    between atoms: _111  and  _112
REMARK   45  A    between atoms: _112  and  _113
REMARK   46  A    between atoms: _122  and  _124
REMARK   47  A    between atoms: _124  and  _125
REMARK   48  A    between atoms: _124  and  _127
REMARK   49  A    between atoms: _127  and  _128
REMARK   50  A    between atoms: _130  and  _132
REMARK   51  A    between atoms: _132  and  _133
REMARK   52  A    between atoms: _132  and  _135
REMARK   53  A    between atoms: _135  and  _136
REMARK   54  A    between atoms: _136  and  _137
REMARK   55  A    between atoms: _139  and  _141
REMARK   56  A    between atoms: _141  and  _142
REMARK   57  A    between atoms: _141  and  _144
REMARK   58  A    between atoms: _144  and  _145
REMARK   59  A    between atoms: _148  and  _150
REMARK   60  A    between atoms: _150  and  _151
REMARK   61  A    between atoms: _150  and  _153
REMARK   62  A    between atoms: _153  and  _154
REMARK   63  A    between atoms: _154  and  _155
REMARK   64  A    between atoms: _155  and  _156
REMARK   65  A    between atoms: _156  and  _157
REMARK   66  A    between atoms: _161  and  _163
REMARK   67  A    between atoms: _163  and  _164
REMARK   68  A    between atoms: _163  and  _166
REMARK   69  A    between atoms: _166  and  _167
REMARK   70  A    between atoms: _173  and  _174
REMARK   71  A    between atoms: _179  and  _181
REMARK   72  A    between atoms: _181  and  _182
REMARK   73  A    between atoms: _181  and  _184
REMARK   74  A    between atoms: _184  and  _185
REMARK   75  A    between atoms: _188  and  _190
REMARK   76  A    between atoms: _190  and  _191
REMARK   77  A    between atoms: _190  and  _193
REMARK   78  A    between atoms: _193  and  _194
REMARK   79  A    between atoms: _194  and  _195
REMARK   80  A    between atoms: _197  and  _199
REMARK   81  A    between atoms: _199  and  _200
REMARK   82  A    between atoms: _199  and  _202
REMARK   83  A    between atoms: _202  and  _203
REMARK   84  A    between atoms: _206  and  _208
REMARK   85  A    between atoms: _208  and  _209
REMARK   86  A    between atoms: _208  and  _211
REMARK   87  A    between atoms: _211  and  _212
REMARK   88  A    between atoms: _218  and  _220
REMARK   89  A    between atoms: _220  and  _221
REMARK   90  A    between atoms: _220  and  _223
REMARK   91  A    between atoms: _223  and  _224
REMARK   92  A    between atoms: _229  and  _231
REMARK   93  A    between atoms: _231  and  _232
REMARK   94  A    between atoms: _231  and  _234
REMARK   95  A    between atoms: _234  and  _235
REMARK   96  A    between atoms: _240  and  _242
REMARK   97  A    between atoms: _242  and  _243
REMARK   98  A    between atoms: _242  and  _245
REMARK   99  A    between atoms: _245  and  _246
REMARK  100  A    between atoms: _251  and  _252
REMARK  101  A    between atoms: _254  and  _256
REMARK  102  A    between atoms: _256  and  _257
REMARK  103  A    between atoms: _256  and  _259
REMARK  104  A    between atoms: _261  and  _263
REMARK  105  A    between atoms: _263  and  _264
REMARK  106  A    between atoms: _263  and  _266
REMARK  107  A    between atoms: _266  and  _267
REMARK  108  A    between atoms: _272  and  _273
REMARK  109  A    between atoms: _277  and  _280
REMARK  110  A    between atoms: _280  and  _281
REMARK  111  A    between atoms: _281  and  _354
REMARK  112  A    between atoms: _285  and  _287
REMARK  113  A    between atoms: _287  and  _289
REMARK  114  A    between atoms: _289  and  _290
REMARK  115  A    between atoms: _289  and  _292
REMARK  116  A    between atoms: _292  and  _293
REMARK  117  A    between atoms: _296  and  _298
REMARK  118  A    between atoms: _298  and  _299
REMARK  119  A    between atoms: _301  and  _303
REMARK  120  A    between atoms: _303  and  _304
REMARK  121  A    between atoms: _306  and  _308
REMARK  122  A    between atoms: _308  and  _309
REMARK  123  A    between atoms: _308  and  _311
REMARK  124  A    between atoms: _311  and  _312
REMARK  125  A    between atoms: _315  and  _317
REMARK  126  A    between atoms: _317  and  _318
REMARK  127  A    between atoms: _317  and  _320
REMARK  128  A    between atoms: _320  and  _321
REMARK  129  A    between atoms: _324  and  _326
REMARK  130  A    between atoms: _326  and  _327
REMARK  131  A    between atoms: _326  and  _329
REMARK  132  A    between atoms: _329  and  _330
REMARK  133  A    between atoms: _330  and  _331
REMARK  134  A    between atoms: _331  and  _332
REMARK  135  A    between atoms: _341  and  _343
REMARK  136  A    between atoms: _343  and  _344
REMARK  137  A    between atoms: _343  and  _346
REMARK  138  A    between atoms: _348  and  _350
REMARK  139  A    between atoms: _350  and  _351
REMARK  140  A    between atoms: _350  and  _353
REMARK  141  A    between atoms: _353  and  _354
REMARK  142  A    between atoms: _355  and  _357
REMARK  143  A    between atoms: _357  and  _358
REMARK  144  A    between atoms: _357  and  _360
REMARK  145  A    between atoms: _360  and  _361
REMARK  146  A    between atoms: _361  and  _362
REMARK  147  A    between atoms: _365  and  _367
REMARK  148  A    between atoms: _367  and  _368
REMARK  149  A    between atoms: _367  and  _370
REMARK  150  A    between atoms: _370  and  _371
REMARK  151  A    between atoms: _374  and  _376
REMARK  152  A    between atoms: _376  and  _377
REMARK  153  A    between atoms: _376  and  _379
REMARK  154  A    between atoms: _379  and  _380
REMARK  155  A    between atoms: _385  and  _387
REMARK  156  A    between atoms: _387  and  _388
REMARK  157  A    between atoms: _387  and  _390
REMARK  158  A    between atoms: _390  and  _391
REMARK  159  A    between atoms: _394  and  _396
REMARK  160  A    between atoms: _396  and  _397
REMARK  161  A    between atoms: _396  and  _399
REMARK  162  A    between atoms: _399  and  _400
REMARK  163  A    between atoms: _405  and  _407
REMARK  164  A    between atoms: _407  and  _408
REMARK  165  A    between atoms: _407  and  _410
REMARK  166  A    between atoms: _410  and  _411
REMARK  167  A    between atoms: _411  and  _480
REMARK  168  A    between atoms: _412  and  _414
REMARK  169  A    between atoms: _414  and  _415
REMARK  170  A    between atoms: _414  and  _417
REMARK  171  A    between atoms: _417  and  _418
REMARK  172  A    between atoms: _423  and  _424
REMARK  173  A    between atoms: _426  and  _428
REMARK  174  A    between atoms: _428  and  _429
REMARK  175  A    between atoms: _428  and  _431
REMARK  176  A    between atoms: _431  and  _432
REMARK  177  A    between atoms: _432  and  _433
REMARK  178  A    between atoms: _433  and  _434
REMARK  179  A    between atoms: _443  and  _445
REMARK  180  A    between atoms: _445  and  _446
REMARK  181  A    between atoms: _445  and  _448
REMARK  182  A    between atoms: _448  and  _449
REMARK  183  A    between atoms: _452  and  _454
REMARK  184  A    between atoms: _454  and  _455
REMARK  185  A    between atoms: _454  and  _457
REMARK  186  A    between atoms: _457  and  _458
REMARK  187  A    between atoms: _458  and  _459
REMARK  188  A    between atoms: _459  and  _460
REMARK  189  A    between atoms: _460  and  _461
REMARK  190  A    between atoms: _465  and  _467
REMARK  191  A    between atoms: _467  and  _468
REMARK  192  A    between atoms: _467  and  _470
REMARK  193  A    between atoms: _470  and  _471
REMARK  194  A    between atoms: _474  and  _476
REMARK  195  A    between atoms: _476  and  _477
REMARK  196  A    between atoms: _476  and  _479
REMARK  197  A    between atoms: _479  and  _480
REMARK  198  A    between atoms: _481  and  _483
REMARK  199  A    between atoms: _483  and  _484
REMARK  200  A    between atoms: _483  and  _486
REMARK  201  A    between atoms: _486  and  _487
REMARK  202  A    between atoms: _490  and  _492
REMARK  203  A    between atoms: _492  and  _493
REMARK  204  A    between atoms: _496  and  _498
REMARK  205  A    between atoms: _498  and  _499
REMARK  206  A    between atoms: _502  and  _504
REMARK  207  A    between atoms: _504  and  _505
REMARK  208  A    between atoms: _504  and  _507
REMARK  209  A    between atoms: _507  and  _508
REMARK  210  A    between atoms: _514  and  _516
REMARK  211  A    between atoms: _516  and  _517
REMARK  212  A    between atoms: _516  and  _519
REMARK  213  A    between atoms: _519  and  _520
REMARK  214  A    between atoms: _522  and  _524
REMARK  215  A    between atoms: _524  and  _525
REMARK  216  A    between atoms: _524  and  _527
REMARK  217  A    between atoms: _527  and  _528
REMARK  218  A    between atoms: _530  and  _532
REMARK  219  A    between atoms: _532  and  _533
REMARK  220  A    between atoms: _532  and  _535
REMARK  221  A    between atoms: _535  and  _536
REMARK  222  A    between atoms: _536  and  _537
REMARK  223  A    between atoms: _537  and  _538
REMARK  224  A    between atoms: _547  and  _549
REMARK  225  A    between atoms: _549  and  _550
REMARK  226  A    between atoms: _553  and  _555
REMARK  227  A    between atoms: _555  and  _556
REMARK  228  A    between atoms: _555  and  _558
REMARK  229  A    between atoms: _558  and  _559
REMARK  230  A    between atoms: _562  and  _564
REMARK  231  A    between atoms: _564  and  _565
REMARK  232  A    between atoms: _564  and  _567
REMARK  233  A    between atoms: _567  and  _568
REMARK  234  A    between atoms: _578  and  _580
REMARK  235  A    between atoms: _580  and  _581
REMARK  236  A    between atoms: _580  and  _583
REMARK  237  A    between atoms: _583  and  _584
REMARK  238  A    between atoms: _584  and  _585
REMARK  239  A    between atoms: _590  and  _592
REMARK  240  A    between atoms: _592  and  _593
REMARK  241  A    between atoms: _592  and  _595
REMARK  242  A    between atoms: _595  and  _596
REMARK  243  A    between atoms: _602  and  _604
REMARK  244  A    between atoms: _604  and  _605
REMARK  245  A    between atoms: _604  and  _607
REMARK  246  A    between atoms: _607  and  _608
REMARK  247  A    between atoms: _608  and  _609
REMARK  248  A    between atoms: _609  and  _610
REMARK  249  A    between atoms: _619  and  _621
REMARK  250  A    between atoms: _621  and  _622
REMARK  251  A    between atoms: _621  and  _624
REMARK  252  A    between atoms: _624  and  _625
REMARK  253  A    between atoms: _627  and  _629
REMARK  254  A    between atoms: _629  and  _630
REMARK  255  A    between atoms: _629  and  _632
REMARK  256  A    between atoms: _632  and  _633
REMARK  257  A    between atoms: _633  and  _634
REMARK  258  A    between atoms: _636  and  _638
REMARK  259  A    between atoms: _638  and  _639
REMARK  260  A    between atoms: _638  and  _641
REMARK  261  A    between atoms: _641  and  _642
REMARK  262  A    between atoms: _645  and  _647
REMARK  263  A    between atoms: _647  and  _648
REMARK  264  A    between atoms: _647  and  _650
REMARK  265  A    between atoms: _650  and  _651
REMARK  266  A    between atoms: _651  and  _652
REMARK  267  A    between atoms: _652  and  _653
REMARK  268  A    between atoms: _653  and  _654
REMARK  269  A    between atoms: _658  and  _660
REMARK  270  A    between atoms: _660  and  _661
REMARK  271  A    between atoms: _660  and  _663
REMARK  272  A    between atoms: _663  and  _664
REMARK  273  A    between atoms: _670  and  _671
REMARK  274  A    between atoms: _676  and  _678
REMARK  275  A    between atoms: _678  and  _679
REMARK  276  A    between atoms: _678  and  _681
REMARK  277  A    between atoms: _681  and  _682
REMARK  278  A    between atoms: _685  and  _687
REMARK  279  A    between atoms: _687  and  _688
REMARK  280  A    between atoms: _687  and  _690
REMARK  281  A    between atoms: _690  and  _691
REMARK  282  A    between atoms: _691  and  _692
REMARK  283  A    between atoms: _694  and  _696
REMARK  284  A    between atoms: _696  and  _697
REMARK  285  A    between atoms: _696  and  _699
REMARK  286  A    between atoms: _699  and  _700
REMARK  287  A    between atoms: _703  and  _705
REMARK  288  A    between atoms: _705  and  _706
REMARK  289  A    between atoms: _705  and  _708
REMARK  290  A    between atoms: _708  and  _709
REMARK  291  A    between atoms: _715  and  _717
REMARK  292  A    between atoms: _717  and  _718
REMARK  293  A    between atoms: _717  and  _720
REMARK  294  A    between atoms: _720  and  _721
REMARK  295  A    between atoms: _726  and  _728
REMARK  296  A    between atoms: _728  and  _729
REMARK  297  A    between atoms: _728  and  _731
REMARK  298  A    between atoms: _731  and  _732
REMARK  299  A    between atoms: _737  and  _739
REMARK  300  A    between atoms: _739  and  _740
REMARK  301  A    between atoms: _739  and  _742
REMARK  302  A    between atoms: _742  and  _743
REMARK  303  A    between atoms: _743  and  _755
REMARK  304  A    between atoms: _744  and  _746
REMARK  305  A    between atoms: _746  and  _747
REMARK  306  A    between atoms: _749  and  _751
REMARK  307  A    between atoms: _751  and  _752
REMARK  308  A    between atoms: _751  and  _754
REMARK  309  A    between atoms: _754  and  _755
REMARK  310  A    between atoms: _756  and  _758
REMARK  311  A    between atoms: _758  and  _759
REMARK  312  A    between atoms: _758  and  _761
REMARK  313  A    between atoms: _761  and  _762
REMARK  314  A    between atoms: _767  and  _769
REMARK  315  A    between atoms: _769  and  _770
REMARK  316  A    between atoms: _769  and  _772
REMARK  317  A    between atoms: _772  and  _773
REMARK  318  A    between atoms: _778  and  _779
REMARK  319  A    between atoms: _781  and  _783
REMARK  320  A    between atoms: _783  and  _784
REMARK  321  A    between atoms: _783  and  _786
REMARK  322  A    between atoms: _786  and  _787
REMARK                            x       y       z     vdW  Elec       q    Type
REMARK                         _______ _______ _______ _____ _____    ______ ____
ROOT
ATOM      1  O   HOH     1      16.881   8.974  13.946  0.00  0.00    +0.000 OA
ENDROOT
TORSDOF 0
REMARK  Name = ../refined-set-2016/1hn4/1hn4_pocket.pdb
REMARK  322 active torsions:
REMARK  status: ('A' for Active; 'I' for Inactive)
REMARK    1  A    between atoms: _1  and  _5
REMARK    2  A    between atoms: _5  and  _6
REMARK    3  A    between atoms: _8  and  _10
REMARK    4  A    between atoms: _10  and  _11
REMARK    5  A    between atoms: _10  and  _13
REMARK    6  A    between atoms: _13  and  _14
REMARK    7  A    between atoms: _17  and  _19
REMARK    8  A    between atoms: _19  and  _20
REMARK    9  A    between atoms: _19  and  _22
REMARK   10  A    between atoms: _22  and  _23
REMARK   11  A    between atoms: _25  and  _27
REMARK   12  A    between atoms: _27  and  _28
REMARK   13  A    between atoms: _27  and  _30
REMARK   14  A    between atoms: _30  and  _31
REMARK   15  A    between atoms: _33  and  _35
REMARK   16  A    between atoms: _35  and  _36
REMARK   17  A    between atoms: _35  and  _38
REMARK   18  A    between atoms: _38  and  _39
REMARK   19  A    between atoms: _39  and  _40
REMARK   20  A    between atoms: _40  and  _41
REMARK   21  A    between atoms: _50  and  _52
REMARK   22  A    between atoms: _52  and  _53
REMARK   23  A    between atoms: _56  and  _58
REMARK   24  A    between atoms: _58  and  _59
REMARK   25  A    between atoms: _58  and  _61
REMARK   26  A    between atoms: _61  and  _62
REMARK   27  A    between atoms: _65  and  _67
REMARK   28  A    between atoms: _67  and  _68
REMARK   29  A    between atoms: _67  and  _70
REMARK   30  A    between atoms: _70  and  _71
REMARK   31  A    between atoms: _81  and  _83
REMARK   32  A    between atoms: _83  and  _84
REMARK   33  A    between atoms: _83  and  _86
REMARK   34  A    between atoms: _86  and  _87
REMARK   35  A    between atoms: _87  and  _88
REMARK   36  A    between atoms: _93  and  _95
REMARK   37  A    between atoms: _95  and  _96
REMARK   38  A    between atoms: _95  and  _98
REMARK   39  A    between atoms: _98  and  _99
REMARK   40  A    between atoms: _105  and  _107
REMARK   41  A    between atoms: _107  and  _108
REMARK   42  A    between atoms: _107  and  _110
REMARK   43  A    between atoms: _110  and  _111
REMARK   44  A    between atoms: _111  and  _112
REMARK   45  A    between atoms: _112  and  _113
REMARK   46  A    between atoms: _122  and  _124
REMARK   47  A    between atoms: _124  and  _125
REMARK   48  A    between atoms: _124  and  _127
REMARK   49  A    between atoms: _127  and  _128
REMARK   50  A    between atoms: _130  and  _132
REMARK   51  A    between atoms: _132  and  _133
REMARK   52  A    between atoms: _132  and  _135
REMARK   53  A    between atoms: _135  and  _136
REMARK   54  A    between atoms: _136  and  _137
REMARK   55  A    between atoms: _139  and  _141
REMARK   56  A    between atoms: _141  and  _142
REMARK   57  A    between atoms: _141  and  _144
REMARK   58  A    between atoms: _144  and  _145
REMARK   59  A    between atoms: _148  and  _150
REMARK   60  A    between atoms: _150  and  _151
REMARK   61  A    between atoms: _150  and  _153
REMARK   62  A    between atoms: _153  and  _154
REMARK   63  A    between atoms: _154  and  _155
REMARK   64  A    between atoms: _155  and  _156
REMARK   65  A    between atoms: _156  and  _157
REMARK   66  A    between atoms: _161  and  _163
REMARK   67  A    between atoms: _163  and  _164
REMARK   68  A    between atoms: _163  and  _166
REMARK   69  A    between atoms: _166  and  _167
REMARK   70  A    between atoms: _173  and  _174
REMARK   71  A    between atoms: _179  and  _181
REMARK   72  A    between atoms: _181  and  _182
REMARK   73  A    between atoms: _181  and  _184
REMARK   74  A    between atoms: _184  and  _185
REMARK   75  A    between atoms: _188  and  _190
REMARK   76  A    between atoms: _190  and  _191
REMARK   77  A    between atoms: _190  and  _193
REMARK   78  A    between atoms: _193  and  _194
REMARK   79  A    between atoms: _194  and  _195
REMARK   80  A    between atoms: _197  and  _199
REMARK   81  A    between atoms: _199  and  _200
REMARK   82  A    between atoms: _199  and  _202
REMARK   83  A    between atoms: _202  and  _203
REMARK   84  A    between atoms: _206  and  _208
REMARK   85  A    between atoms: _208  and  _209
REMARK   86  A    between atoms: _208  and  _211
REMARK   87  A    between atoms: _211  and  _212
REMARK   88  A    between atoms: _218  and  _220
REMARK   89  A    between atoms: _220  and  _221
REMARK   90  A    between atoms: _220  and  _223
REMARK   91  A    between atoms: _223  and  _224
REMARK   92  A    between atoms: _229  and  _231
REMARK   93  A    between atoms: _231  and  _232
REMARK   94  A    between atoms: _231  and  _234
REMARK   95  A    between atoms: _234  and  _235
REMARK   96  A    between atoms: _240  and  _242
REMARK   97  A    between atoms: _242  and  _243
REMARK   98  A    between atoms: _242  and  _245
REMARK   99  A    between atoms: _245  and  _246
REMARK  100  A    between atoms: _251  and  _252
REMARK  101  A    between atoms: _254  and  _256
REMARK  102  A    between atoms: _256  and  _257
REMARK  103  A    between atoms: _256  and  _259
REMARK  104  A    between atoms: _261  and  _263
REMARK  105  A    between atoms: _263  and  _264
REMARK  106  A    between atoms: _263  and  _266
REMARK  107  A    between atoms: _266  and  _267
REMARK  108  A    between atoms: _272  and  _273
REMARK  109  A    between atoms: _277  and  _280
REMARK  110  A    between atoms: _280  and  _281
REMARK  111  A    between atoms: _281  and  _354
REMARK  112  A    between atoms: _285  and  _287
REMARK  113  A    between atoms: _287  and  _289
REMARK  114  A    between atoms: _289  and  _290
REMARK  115  A    between atoms: _289  and  _292
REMARK  116  A    between atoms: _292  and  _293
REMARK  117  A    between atoms: _296  and  _298
REMARK  118  A    between atoms: _298  and  _299
REMARK  119  A    between atoms: _301  and  _303
REMARK  120  A    between atoms: _303  and  _304
REMARK  121  A    between atoms: _306  and  _308
REMARK  122  A    between atoms: _308  and  _309
REMARK  123  A    between atoms: _308  and  _311
REMARK  124  A    between atoms: _311  and  _312
REMARK  125  A    between atoms: _315  and  _317
REMARK  126  A    between atoms: _317  and  _318
REMARK  127  A    between atoms: _317  and  _320
REMARK  128  A    between atoms: _320  and  _321
REMARK  129  A    between atoms: _324  and  _326
REMARK  130  A    between atoms: _326  and  _327
REMARK  131  A    between atoms: _326  and  _329
REMARK  132  A    between atoms: _329  and  _330
REMARK  133  A    between atoms: _330  and  _331
REMARK  134  A    between atoms: _331  and  _332
REMARK  135  A    between atoms: _341  and  _343
REMARK  136  A    between atoms: _343  and  _344
REMARK  137  A    between atoms: _343  and  _346
REMARK  138  A    between atoms: _348  and  _350
REMARK  139  A    between atoms: _350  and  _351
REMARK  140  A    between atoms: _350  and  _353
REMARK  141  A    between atoms: _353  and  _354
REMARK  142  A    between atoms: _355  and  _357
REMARK  143  A    between atoms: _357  and  _358
REMARK  144  A    between atoms: _357  and  _360
REMARK  145  A    between atoms: _360  and  _361
REMARK  146  A    between atoms: _361  and  _362
REMARK  147  A    between atoms: _365  and  _367
REMARK  148  A    between atoms: _367  and  _368
REMARK  149  A    between atoms: _367  and  _370
REMARK  150  A    between atoms: _370  and  _371
REMARK  151  A    between atoms: _374  and  _376
REMARK  152  A    between atoms: _376  and  _377
REMARK  153  A    between atoms: _376  and  _379
REMARK  154  A    between atoms: _379  and  _380
REMARK  155  A    between atoms: _385  and  _387
REMARK  156  A    between atoms: _387  and  _388
REMARK  157  A    between atoms: _387  and  _390
REMARK  158  A    between atoms: _390  and  _391
REMARK  159  A    between atoms: _394  and  _396
REMARK  160  A    between atoms: _396  and  _397
REMARK  161  A    between atoms: _396  and  _399
REMARK  162  A    between atoms: _399  and  _400
REMARK  163  A    between atoms: _405  and  _407
REMARK  164  A    between atoms: _407  and  _408
REMARK  165  A    between atoms: _407  and  _410
REMARK  166  A    between atoms: _410  and  _411
REMARK  167  A    between atoms: _411  and  _480
REMARK  168  A    between atoms: _412  and  _414
REMARK  169  A    between atoms: _414  and  _415
REMARK  170  A    between atoms: _414  and  _417
REMARK  171  A    between atoms: _417  and  _418
REMARK  172  A    between atoms: _423  and  _424
REMARK  173  A    between atoms: _426  and  _428
REMARK  174  A    between atoms: _428  and  _429
REMARK  175  A    between atoms: _428  and  _431
REMARK  176  A    between atoms: _431  and  _432
REMARK  177  A    between atoms: _432  and  _433
REMARK  178  A    between atoms: _433  and  _434
REMARK  179  A    between atoms: _443  and  _445
REMARK  180  A    between atoms: _445  and  _446
REMARK  181  A    between atoms: _445  and  _448
REMARK  182  A    between atoms: _448  and  _449
REMARK  183  A    between atoms: _452  and  _454
REMARK  184  A    between atoms: _454  and  _455
REMARK  185  A    between atoms: _454  and  _457
REMARK  186  A    between atoms: _457  and  _458
REMARK  187  A    between atoms: _458  and  _459
REMARK  188  A    between atoms: _459  and  _460
REMARK  189  A    between atoms: _460  and  _461
REMARK  190  A    between atoms: _465  and  _467
REMARK  191  A    between atoms: _467  and  _468
REMARK  192  A    between atoms: _467  and  _470
REMARK  193  A    between atoms: _470  and  _471
REMARK  194  A    between atoms: _474  and  _476
REMARK  195  A    between atoms: _476  and  _477
REMARK  196  A    between atoms: _476  and  _479
REMARK  197  A    between atoms: _479  and  _480
REMARK  198  A    between atoms: _481  and  _483
REMARK  199  A    between atoms: _483  and  _484
REMARK  200  A    between atoms: _483  and  _486
REMARK  201  A    between atoms: _486  and  _487
REMARK  202  A    between atoms: _490  and  _492
REMARK  203  A    between atoms: _492  and  _493
REMARK  204  A    between atoms: _496  and  _498
REMARK  205  A    between atoms: _498  and  _499
REMARK  206  A    between atoms: _502  and  _504
REMARK  207  A    between atoms: _504  and  _505
REMARK  208  A    between atoms: _504  and  _507
REMARK  209  A    between atoms: _507  and  _508
REMARK  210  A    between atoms: _514  and  _516
REMARK  211  A    between atoms: _516  and  _517
REMARK  212  A    between atoms: _516  and  _519
REMARK  213  A    between atoms: _519  and  _520
REMARK  214  A    between atoms: _522  and  _524
REMARK  215  A    between atoms: _524  and  _525
REMARK  216  A    between atoms: _524  and  _527
REMARK  217  A    between atoms: _527  and  _528
REMARK  218  A    between atoms: _530  and  _532
REMARK  219  A    between atoms: _532  and  _533
REMARK  220  A    between atoms: _532  and  _535
REMARK  221  A    between atoms: _535  and  _536
REMARK  222  A    between atoms: _536  and  _537
REMARK  223  A    between atoms: _537  and  _538
REMARK  224  A    between atoms: _547  and  _549
REMARK  225  A    between atoms: _549  and  _550
REMARK  226  A    between atoms: _553  and  _555
REMARK  227  A    between atoms: _555  and  _556
REMARK  228  A    between atoms: _555  and  _558
REMARK  229  A    between atoms: _558  and  _559
REMARK  230  A    between atoms: _562  and  _564
REMARK  231  A    between atoms: _564  and  _565
REMARK  232  A    between atoms: _564  and  _567
REMARK  233  A    between atoms: _567  and  _568
REMARK  234  A    between atoms: _578  and  _580
REMARK  235  A    between atoms: _580  and  _581
REMARK  236  A    between atoms: _580  and  _583
REMARK  237  A    between atoms: _583  and  _584
REMARK  238  A    between atoms: _584  and  _585
REMARK  239  A    between atoms: _590  and  _592
REMARK  240  A    between atoms: _592  and  _593
REMARK  241  A    between atoms: _592  and  _595
REMARK  242  A    between atoms: _595  and  _596
REMARK  243  A    between atoms: _602  and  _604
REMARK  244  A    between atoms: _604  and  _605
REMARK  245  A    between atoms: _604  and  _607
REMARK  246  A    between atoms: _607  and  _608
REMARK  247  A    between atoms: _608  and  _609
REMARK  248  A    between atoms: _609  and  _610
REMARK  249  A    between atoms: _619  and  _621
REMARK  250  A    between atoms: _621  and  _622
REMARK  251  A    between atoms: _621  and  _624
REMARK  252  A    between atoms: _624  and  _625
REMARK  253  A    between atoms: _627  and  _629
REMARK  254  A    between atoms: _629  and  _630
REMARK  255  A    between atoms: _629  and  _632
REMARK  256  A    between atoms: _632  and  _633
REMARK  257  A    between atoms: _633  and  _634
REMARK  258  A    between atoms: _636  and  _638
REMARK  259  A    between atoms: _638  and  _639
REMARK  260  A    between atoms: _638  and  _641
REMARK  261  A    between atoms: _641  and  _642
REMARK  262  A    between atoms: _645  and  _647
REMARK  263  A    between atoms: _647  and  _648
REMARK  264  A    between atoms: _647  and  _650
REMARK  265  A    between atoms: _650  and  _651
REMARK  266  A    between atoms: _651  and  _652
REMARK  267  A    between atoms: _652  and  _653
REMARK  268  A    between atoms: _653  and  _654
REMARK  269  A    between atoms: _658  and  _660
REMARK  270  A    between atoms: _660  and  _661
REMARK  271  A    between atoms: _660  and  _663
REMARK  272  A    between atoms: _663  and  _664
REMARK  273  A    between atoms: _670  and  _671
REMARK  274  A    between atoms: _676  and  _678
REMARK  275  A    between atoms: _678  and  _679
REMARK  276  A    between atoms: _678  and  _681
REMARK  277  A    between atoms: _681  and  _682
REMARK  278  A    between atoms: _685  and  _687
REMARK  279  A    between atoms: _687  and  _688
REMARK  280  A    between atoms: _687  and  _690
REMARK  281  A    between atoms: _690  and  _691
REMARK  282  A    between atoms: _691  and  _692
REMARK  283  A    between atoms: _694  and  _696
REMARK  284  A    between atoms: _696  and  _697
REMARK  285  A    between atoms: _696  and  _699
REMARK  286  A    between atoms: _699  and  _700
REMARK  287  A    between atoms: _703  and  _705
REMARK  288  A    between atoms: _705  and  _706
REMARK  289  A    between atoms: _705  and  _708
REMARK  290  A    between atoms: _708  and  _709
REMARK  291  A    between atoms: _715  and  _717
REMARK  292  A    between atoms: _717  and  _718
REMARK  293  A    between atoms: _717  and  _720
REMARK  294  A    between atoms: _720  and  _721
REMARK  295  A    between atoms: _726  and  _728
REMARK  296  A    between atoms: _728  and  _729
REMARK  297  A    between atoms: _728  and  _731
REMARK  298  A    between atoms: _731  and  _732
REMARK  299  A    between atoms: _737  and  _739
REMARK  300  A    between atoms: _739  and  _740
REMARK  301  A    between atoms: _739  and  _742
REMARK  302  A    between atoms: _742  and  _743
REMARK  303  A    between atoms: _743  and  _755
REMARK  304  A    between atoms: _744  and  _746
REMARK  305  A    between atoms: _746  and  _747
REMARK  306  A    between atoms: _749  and  _751
REMARK  307  A    between atoms: _751  and  _752
REMARK  308  A    between atoms: _751  and  _754
REMARK  309  A    between atoms: _754  and  _755
REMARK  310  A    between atoms: _756  and  _758
REMARK  311  A    between atoms: _758  and  _759
REMARK  312  A    between atoms: _758  and  _761
REMARK  313  A    between atoms: _761  and  _762
REMARK  314  A    between atoms: _767  and  _769
REMARK  315  A    between atoms: _769  and  _770
REMARK  316  A    between atoms: _769  and  _772
REMARK  317  A    between atoms: _772  and  _773
REMARK  318  A    between atoms: _778  and  _779
REMARK  319  A    between atoms: _781  and  _783
REMARK  320  A    between atoms: _783  and  _784
REMARK  321  A    between atoms: _783  and  _786
REMARK  322  A    between atoms: _786  and  _787
REMARK                            x       y       z     vdW  Elec       q    Type
REMARK                         _______ _______ _______ _____ _____    ______ ____
ROOT
ATOM      1  O   HOH     1      22.428  22.508  12.563  0.00  0.00    +0.000 OA
ENDROOT
TORSDOF 0
REMARK  Name = ../refined-set-2016/1hn4/1hn4_pocket.pdb
REMARK  322 active torsions:
REMARK  status: ('A' for Active; 'I' for Inactive)
REMARK    1  A    between atoms: _1  and  _5
REMARK    2  A    between atoms: _5  and  _6
REMARK    3  A    between atoms: _8  and  _10
REMARK    4  A    between atoms: _10  and  _11
REMARK    5  A    between atoms: _10  and  _13
REMARK    6  A    between atoms: _13  and  _14
REMARK    7  A    between atoms: _17  and  _19
REMARK    8  A    between atoms: _19  and  _20
REMARK    9  A    between atoms: _19  and  _22
REMARK   10  A    between atoms: _22  and  _23
REMARK   11  A    between atoms: _25  and  _27
REMARK   12  A    between atoms: _27  and  _28
REMARK   13  A    between atoms: _27  and  _30
REMARK   14  A    between atoms: _30  and  _31
REMARK   15  A    between atoms: _33  and  _35
REMARK   16  A    between atoms: _35  and  _36
REMARK   17  A    between atoms: _35  and  _38
REMARK   18  A    between atoms: _38  and  _39
REMARK   19  A    between atoms: _39  and  _40
REMARK   20  A    between atoms: _40  and  _41
REMARK   21  A    between atoms: _50  and  _52
REMARK   22  A    between atoms: _52  and  _53
REMARK   23  A    between atoms: _56  and  _58
REMARK   24  A    between atoms: _58  and  _59
REMARK   25  A    between atoms: _58  and  _61
REMARK   26  A    between atoms: _61  and  _62
REMARK   27  A    between atoms: _65  and  _67
REMARK   28  A    between atoms: _67  and  _68
REMARK   29  A    between atoms: _67  and  _70
REMARK   30  A    between atoms: _70  and  _71
REMARK   31  A    between atoms: _81  and  _83
REMARK   32  A    between atoms: _83  and  _84
REMARK   33  A    between atoms: _83  and  _86
REMARK   34  A    between atoms: _86  and  _87
REMARK   35  A    between atoms: _87  and  _88
REMARK   36  A    between atoms: _93  and  _95
REMARK   37  A    between atoms: _95  and  _96
REMARK   38  A    between atoms: _95  and  _98
REMARK   39  A    between atoms: _98  and  _99
REMARK   40  A    between atoms: _105  and  _107
REMARK   41  A    between atoms: _107  and  _108
REMARK   42  A    between atoms: _107  and  _110
REMARK   43  A    between atoms: _110  and  _111
REMARK   44  A    between atoms: _111  and  _112
REMARK   45  A    between atoms: _112  and  _113
REMARK   46  A    between atoms: _122  and  _124
REMARK   47  A    between atoms: _124  and  _125
REMARK   48  A    between atoms: _124  and  _127
REMARK   49  A    between atoms: _127  and  _128
REMARK   50  A    between atoms: _130  and  _132
REMARK   51  A    between atoms: _132  and  _133
REMARK   52  A    between atoms: _132  and  _135
REMARK   53  A    between atoms: _135  and  _136
REMARK   54  A    between atoms: _136  and  _137
REMARK   55  A    between atoms: _139  and  _141
REMARK   56  A    between atoms: _141  and  _142
REMARK   57  A    between atoms: _141  and  _144
REMARK   58  A    between atoms: _144  and  _145
REMARK   59  A    between atoms: _148  and  _150
REMARK   60  A    between atoms: _150  and  _151
REMARK   61  A    between atoms: _150  and  _153
REMARK   62  A    between atoms: _153  and  _154
REMARK   63  A    between atoms: _154  and  _155
REMARK   64  A    between atoms: _155  and  _156
REMARK   65  A    between atoms: _156  and  _157
REMARK   66  A    between atoms: _161  and  _163
REMARK   67  A    between atoms: _163  and  _164
REMARK   68  A    between atoms: _163  and  _166
REMARK   69  A    between atoms: _166  and  _167
REMARK   70  A    between atoms: _173  and  _174
REMARK   71  A    between atoms: _179  and  _181
REMARK   72  A    between atoms: _181  and  _182
REMARK   73  A    between atoms: _181  and  _184
REMARK   74  A    between atoms: _184  and  _185
REMARK   75  A    between atoms: _188  and  _190
REMARK   76  A    between atoms: _190  and  _191
REMARK   77  A    between atoms: _190  and  _193
REMARK   78  A    between atoms: _193  and  _194
REMARK   79  A    between atoms: _194  and  _195
REMARK   80  A    between atoms: _197  and  _199
REMARK   81  A    between atoms: _199  and  _200
REMARK   82  A    between atoms: _199  and  _202
REMARK   83  A    between atoms: _202  and  _203
REMARK   84  A    between atoms: _206  and  _208
REMARK   85  A    between atoms: _208  and  _209
REMARK   86  A    between atoms: _208  and  _211
REMARK   87  A    between atoms: _211  and  _212
REMARK   88  A    between atoms: _218  and  _220
REMARK   89  A    between atoms: _220  and  _221
REMARK   90  A    between atoms: _220  and  _223
REMARK   91  A    between atoms: _223  and  _224
REMARK   92  A    between atoms: _229  and  _231
REMARK   93  A    between atoms: _231  and  _232
REMARK   94  A    between atoms: _231  and  _234
REMARK   95  A    between atoms: _234  and  _235
REMARK   96  A    between atoms: _240  and  _242
REMARK   97  A    between atoms: _242  and  _243
REMARK   98  A    between atoms: _242  and  _245
REMARK   99  A    between atoms: _245  and  _246
REMARK  100  A    between atoms: _251  and  _252
REMARK  101  A    between atoms: _254  and  _256
REMARK  102  A    between atoms: _256  and  _257
REMARK  103  A    between atoms: _256  and  _259
REMARK  104  A    between atoms: _261  and  _263
REMARK  105  A    between atoms: _263  and  _264
REMARK  106  A    between atoms: _263  and  _266
REMARK  107  A    between atoms: _266  and  _267
REMARK  108  A    between atoms: _272  and  _273
REMARK  109  A    between atoms: _277  and  _280
REMARK  110  A    between atoms: _280  and  _281
REMARK  111  A    between atoms: _281  and  _354
REMARK  112  A    between atoms: _285  and  _287
REMARK  113  A    between atoms: _287  and  _289
REMARK  114  A    between atoms: _289  and  _290
REMARK  115  A    between atoms: _289  and  _292
REMARK  116  A    between atoms: _292  and  _293
REMARK  117  A    between atoms: _296  and  _298
REMARK  118  A    between atoms: _298  and  _299
REMARK  119  A    between atoms: _301  and  _303
REMARK  120  A    between atoms: _303  and  _304
REMARK  121  A    between atoms: _306  and  _308
REMARK  122  A    between atoms: _308  and  _309
REMARK  123  A    between atoms: _308  and  _311
REMARK  124  A    between atoms: _311  and  _312
REMARK  125  A    between atoms: _315  and  _317
REMARK  126  A    between atoms: _317  and  _318
REMARK  127  A    between atoms: _317  and  _320
REMARK  128  A    between atoms: _320  and  _321
REMARK  129  A    between atoms: _324  and  _326
REMARK  130  A    between atoms: _326  and  _327
REMARK  131  A    between atoms: _326  and  _329
REMARK  132  A    between atoms: _329  and  _330
REMARK  133  A    between atoms: _330  and  _331
REMARK  134  A    between atoms: _331  and  _332
REMARK  135  A    between atoms: _341  and  _343
REMARK  136  A    between atoms: _343  and  _344
REMARK  137  A    between atoms: _343  and  _346
REMARK  138  A    between atoms: _348  and  _350
REMARK  139  A    between atoms: _350  and  _351
REMARK  140  A    between atoms: _350  and  _353
REMARK  141  A    between atoms: _353  and  _354
REMARK  142  A    between atoms: _355  and  _357
REMARK  143  A    between atoms: _357  and  _358
REMARK  144  A    between atoms: _357  and  _360
REMARK  145  A    between atoms: _360  and  _361
REMARK  146  A    between atoms: _361  and  _362
REMARK  147  A    between atoms: _365  and  _367
REMARK  148  A    between atoms: _367  and  _368
REMARK  149  A    between atoms: _367  and  _370
REMARK  150  A    between atoms: _370  and  _371
REMARK  151  A    between atoms: _374  and  _376
REMARK  152  A    between atoms: _376  and  _377
REMARK  153  A    between atoms: _376  and  _379
REMARK  154  A    between atoms: _379  and  _380
REMARK  155  A    between atoms: _385  and  _387
REMARK  156  A    between atoms: _387  and  _388
REMARK  157  A    between atoms: _387  and  _390
REMARK  158  A    between atoms: _390  and  _391
REMARK  159  A    between atoms: _394  and  _396
REMARK  160  A    between atoms: _396  and  _397
REMARK  161  A    between atoms: _396  and  _399
REMARK  162  A    between atoms: _399  and  _400
REMARK  163  A    between atoms: _405  and  _407
REMARK  164  A    between atoms: _407  and  _408
REMARK  165  A    between atoms: _407  and  _410
REMARK  166  A    between atoms: _410  and  _411
REMARK  167  A    between atoms: _411  and  _480
REMARK  168  A    between atoms: _412  and  _414
REMARK  169  A    between atoms: _414  and  _415
REMARK  170  A    between atoms: _414  and  _417
REMARK  171  A    between atoms: _417  and  _418
REMARK  172  A    between atoms: _423  and  _424
REMARK  173  A    between atoms: _426  and  _428
REMARK  174  A    between atoms: _428  and  _429
REMARK  175  A    between atoms: _428  and  _431
REMARK  176  A    between atoms: _431  and  _432
REMARK  177  A    between atoms: _432  and  _433
REMARK  178  A    between atoms: _433  and  _434
REMARK  179  A    between atoms: _443  and  _445
REMARK  180  A    between atoms: _445  and  _446
REMARK  181  A    between atoms: _445  and  _448
REMARK  182  A    between atoms: _448  and  _449
REMARK  183  A    between atoms: _452  and  _454
REMARK  184  A    between atoms: _454  and  _455
REMARK  185  A    between atoms: _454  and  _457
REMARK  186  A    between atoms: _457  and  _458
REMARK  187  A    between atoms: _458  and  _459
REMARK  188  A    between atoms: _459  and  _460
REMARK  189  A    between atoms: _460  and  _461
REMARK  190  A    between atoms: _465  and  _467
REMARK  191  A    between atoms: _467  and  _468
REMARK  192  A    between atoms: _467  and  _470
REMARK  193  A    between atoms: _470  and  _471
REMARK  194  A    between atoms: _474  and  _476
REMARK  195  A    between atoms: _476  and  _477
REMARK  196  A    between atoms: _476  and  _479
REMARK  197  A    between atoms: _479  and  _480
REMARK  198  A    between atoms: _481  and  _483
REMARK  199  A    between atoms: _483  and  _484
REMARK  200  A    between atoms: _483  and  _486
REMARK  201  A    between atoms: _486  and  _487
REMARK  202  A    between atoms: _490  and  _492
REMARK  203  A    between atoms: _492  and  _493
REMARK  204  A    between atoms: _496  and  _498
REMARK  205  A    between atoms: _498  and  _499
REMARK  206  A    between atoms: _502  and  _504
REMARK  207  A    between atoms: _504  and  _505
REMARK  208  A    between atoms: _504  and  _507
REMARK  209  A    between atoms: _507  and  _508
REMARK  210  A    between atoms: _514  and  _516
REMARK  211  A    between atoms: _516  and  _517
REMARK  212  A    between atoms: _516  and  _519
REMARK  213  A    between atoms: _519  and  _520
REMARK  214  A    between atoms: _522  and  _524
REMARK  215  A    between atoms: _524  and  _525
REMARK  216  A    between atoms: _524  and  _527
REMARK  217  A    between atoms: _527  and  _528
REMARK  218  A    between atoms: _530  and  _532
REMARK  219  A    between atoms: _532  and  _533
REMARK  220  A    between atoms: _532  and  _535
REMARK  221  A    between atoms: _535  and  _536
REMARK  222  A    between atoms: _536  and  _537
REMARK  223  A    between atoms: _537  and  _538
REMARK  224  A    between atoms: _547  and  _549
REMARK  225  A    between atoms: _549  and  _550
REMARK  226  A    between atoms: _553  and  _555
REMARK  227  A    between atoms: _555  and  _556
REMARK  228  A    between atoms: _555  and  _558
REMARK  229  A    between atoms: _558  and  _559
REMARK  230  A    between atoms: _562  and  _564
REMARK  231  A    between atoms: _564  and  _565
REMARK  232  A    between atoms: _564  and  _567
REMARK  233  A    between atoms: _567  and  _568
REMARK  234  A    between atoms: _578  and  _580
REMARK  235  A    between atoms: _580  and  _581
REMARK  236  A    between atoms: _580  and  _583
REMARK  237  A    between atoms: _583  and  _584
REMARK  238  A    between atoms: _584  and  _585
REMARK  239  A    between atoms: _590  and  _592
REMARK  240  A    between atoms: _592  and  _593
REMARK  241  A    between atoms: _592  and  _595
REMARK  242  A    between atoms: _595  and  _596
REMARK  243  A    between atoms: _602  and  _604
REMARK  244  A    between atoms: _604  and  _605
REMARK  245  A    between atoms: _604  and  _607
REMARK  246  A    between atoms: _607  and  _608
REMARK  247  A    between atoms: _608  and  _609
REMARK  248  A    between atoms: _609  and  _610
REMARK  249  A    between atoms: _619  and  _621
REMARK  250  A    between atoms: _621  and  _622
REMARK  251  A    between atoms: _621  and  _624
REMARK  252  A    between atoms: _624  and  _625
REMARK  253  A    between atoms: _627  and  _629
REMARK  254  A    between atoms: _629  and  _630
REMARK  255  A    between atoms: _629  and  _632
REMARK  256  A    between atoms: _632  and  _633
REMARK  257  A    between atoms: _633  and  _634
REMARK  258  A    between atoms: _636  and  _638
REMARK  259  A    between atoms: _638  and  _639
REMARK  260  A    between atoms: _638  and  _641
REMARK  261  A    between atoms: _641  and  _642
REMARK  262  A    between atoms: _645  and  _647
REMARK  263  A    between atoms: _647  and  _648
REMARK  264  A    between atoms: _647  and  _650
REMARK  265  A    between atoms: _650  and  _651
REMARK  266  A    between atoms: _651  and  _652
REMARK  267  A    between atoms: _652  and  _653
REMARK  268  A    between atoms: _653  and  _654
REMARK  269  A    between atoms: _658  and  _660
REMARK  270  A    between atoms: _660  and  _661
REMARK  271  A    between atoms: _660  and  _663
REMARK  272  A    between atoms: _663  and  _664
REMARK  273  A    between atoms: _670  and  _671
REMARK  274  A    between atoms: _676  and  _678
REMARK  275  A    between atoms: _678  and  _679
REMARK  276  A    between atoms: _678  and  _681
REMARK  277  A    between atoms: _681  and  _682
REMARK  278  A    between atoms: _685  and  _687
REMARK  279  A    between atoms: _687  and  _688
REMARK  280  A    between atoms: _687  and  _690
REMARK  281  A    between atoms: _690  and  _691
REMARK  282  A    between atoms: _691  and  _692
REMARK  283  A    between atoms: _694  and  _696
REMARK  284  A    between atoms: _696  and  _697
REMARK  285  A    between atoms: _696  and  _699
REMARK  286  A    between atoms: _699  and  _700
REMARK  287  A    between atoms: _703  and  _705
REMARK  288  A    between atoms: _705  and  _706
REMARK  289  A    between atoms: _705  and  _708
REMARK  290  A    between atoms: _708  and  _709
REMARK  291  A    between atoms: _715  and  _717
REMARK  292  A    between atoms: _717  and  _718
REMARK  293  A    between atoms: _717  and  _720
REMARK  294  A    between atoms: _720  and  _721
REMARK  295  A    between atoms: _726  and  _728
REMARK  296  A    between atoms: _728  and  _729
REMARK  297  A    between atoms: _728  and  _731
REMARK  298  A    between atoms: _731  and  _732
REMARK  299  A    between atoms: _737  and  _739
REMARK  300  A    between atoms: _739  and  _740
REMARK  301  A    between atoms: _739  and  _742
REMARK  302  A    between atoms: _742  and  _743
REMARK  303  A    between atoms: _743  and  _755
REMARK  304  A    between atoms: _744  and  _746
REMARK  305  A    between atoms: _746  and  _747
REMARK  306  A    between atoms: _749  and  _751
REMARK  307  A    between atoms: _751  and  _752
REMARK  308  A    between atoms: _751  and  _754
REMARK  309  A    between atoms: _754  and  _755
REMARK  310  A    between atoms: _756  and  _758
REMARK  311  A    between atoms: _758  and  _759
REMARK  312  A    between atoms: _758  and  _761
REMARK  313  A    between atoms: _761  and  _762
REMARK  314  A    between atoms: _767  and  _769
REMARK  315  A    between atoms: _769  and  _770
REMARK  316  A    between atoms: _769  and  _772
REMARK  317  A    between atoms: _772  and  _773
REMARK  318  A    between atoms: _778  and  _779
REMARK  319  A    between atoms: _781  and  _783
REMARK  320  A    between atoms: _783  and  _784
REMARK  321  A    between atoms: _783  and  _786
REMARK  322  A    between atoms: _786  and  _787
REMARK                            x       y       z     vdW  Elec       q    Type
REMARK                         _______ _______ _______ _____ _____    ______ ____
ROOT
ATOM      1  O   HOH     1      27.923  19.291  14.289  0.00  0.00    +0.000 OA
ENDROOT
TORSDOF 0
REMARK  Name = ../refined-set-2016/1hn4/1hn4_pocket.pdb
REMARK  322 active torsions:
REMARK  status: ('A' for Active; 'I' for Inactive)
REMARK    1  A    between atoms: _1  and  _5
REMARK    2  A    between atoms: _5  and  _6
REMARK    3  A    between atoms: _8  and  _10
REMARK    4  A    between atoms: _10  and  _11
REMARK    5  A    between atoms: _10  and  _13
REMARK    6  A    between atoms: _13  and  _14
REMARK    7  A    between atoms: _17  and  _19
REMARK    8  A    between atoms: _19  and  _20
REMARK    9  A    between atoms: _19  and  _22
REMARK   10  A    between atoms: _22  and  _23
REMARK   11  A    between atoms: _25  and  _27
REMARK   12  A    between atoms: _27  and  _28
REMARK   13  A    between atoms: _27  and  _30
REMARK   14  A    between atoms: _30  and  _31
REMARK   15  A    between atoms: _33  and  _35
REMARK   16  A    between atoms: _35  and  _36
REMARK   17  A    between atoms: _35  and  _38
REMARK   18  A    between atoms: _38  and  _39
REMARK   19  A    between atoms: _39  and  _40
REMARK   20  A    between atoms: _40  and  _41
REMARK   21  A    between atoms: _50  and  _52
REMARK   22  A    between atoms: _52  and  _53
REMARK   23  A    between atoms: _56  and  _58
REMARK   24  A    between atoms: _58  and  _59
REMARK   25  A    between atoms: _58  and  _61
REMARK   26  A    between atoms: _61  and  _62
REMARK   27  A    between atoms: _65  and  _67
REMARK   28  A    between atoms: _67  and  _68
REMARK   29  A    between atoms: _67  and  _70
REMARK   30  A    between atoms: _70  and  _71
REMARK   31  A    between atoms: _81  and  _83
REMARK   32  A    between atoms: _83  and  _84
REMARK   33  A    between atoms: _83  and  _86
REMARK   34  A    between atoms: _86  and  _87
REMARK   35  A    between atoms: _87  and  _88
REMARK   36  A    between atoms: _93  and  _95
REMARK   37  A    between atoms: _95  and  _96
REMARK   38  A    between atoms: _95  and  _98
REMARK   39  A    between atoms: _98  and  _99
REMARK   40  A    between atoms: _105  and  _107
REMARK   41  A    between atoms: _107  and  _108
REMARK   42  A    between atoms: _107  and  _110
REMARK   43  A    between atoms: _110  and  _111
REMARK   44  A    between atoms: _111  and  _112
REMARK   45  A    between atoms: _112  and  _113
REMARK   46  A    between atoms: _122  and  _124
REMARK   47  A    between atoms: _124  and  _125
REMARK   48  A    between atoms: _124  and  _127
REMARK   49  A    between atoms: _127  and  _128
REMARK   50  A    between atoms: _130  and  _132
REMARK   51  A    between atoms: _132  and  _133
REMARK   52  A    between atoms: _132  and  _135
REMARK   53  A    between atoms: _135  and  _136
REMARK   54  A    between atoms: _136  and  _137
REMARK   55  A    between atoms: _139  and  _141
REMARK   56  A    between atoms: _141  and  _142
REMARK   57  A    between atoms: _141  and  _144
REMARK   58  A    between atoms: _144  and  _145
REMARK   59  A    between atoms: _148  and  _150
REMARK   60  A    between atoms: _150  and  _151
REMARK   61  A    between atoms: _150  and  _153
REMARK   62  A    between atoms: _153  and  _154
REMARK   63  A    between atoms: _154  and  _155
REMARK   64  A    between atoms: _155  and  _156
REMARK   65  A    between atoms: _156  and  _157
REMARK   66  A    between atoms: _161  and  _163
REMARK   67  A    between atoms: _163  and  _164
REMARK   68  A    between atoms: _163  and  _166
REMARK   69  A    between atoms: _166  and  _167
REMARK   70  A    between atoms: _173  and  _174
REMARK   71  A    between atoms: _179  and  _181
REMARK   72  A    between atoms: _181  and  _182
REMARK   73  A    between atoms: _181  and  _184
REMARK   74  A    between atoms: _184  and  _185
REMARK   75  A    between atoms: _188  and  _190
REMARK   76  A    between atoms: _190  and  _191
REMARK   77  A    between atoms: _190  and  _193
REMARK   78  A    between atoms: _193  and  _194
REMARK   79  A    between atoms: _194  and  _195
REMARK   80  A    between atoms: _197  and  _199
REMARK   81  A    between atoms: _199  and  _200
REMARK   82  A    between atoms: _199  and  _202
REMARK   83  A    between atoms: _202  and  _203
REMARK   84  A    between atoms: _206  and  _208
REMARK   85  A    between atoms: _208  and  _209
REMARK   86  A    between atoms: _208  and  _211
REMARK   87  A    between atoms: _211  and  _212
REMARK   88  A    between atoms: _218  and  _220
REMARK   89  A    between atoms: _220  and  _221
REMARK   90  A    between atoms: _220  and  _223
REMARK   91  A    between atoms: _223  and  _224
REMARK   92  A    between atoms: _229  and  _231
REMARK   93  A    between atoms: _231  and  _232
REMARK   94  A    between atoms: _231  and  _234
REMARK   95  A    between atoms: _234  and  _235
REMARK   96  A    between atoms: _240  and  _242
REMARK   97  A    between atoms: _242  and  _243
REMARK   98  A    between atoms: _242  and  _245
REMARK   99  A    between atoms: _245  and  _246
REMARK  100  A    between atoms: _251  and  _252
REMARK  101  A    between atoms: _254  and  _256
REMARK  102  A    between atoms: _256  and  _257
REMARK  103  A    between atoms: _256  and  _259
REMARK  104  A    between atoms: _261  and  _263
REMARK  105  A    between atoms: _263  and  _264
REMARK  106  A    between atoms: _263  and  _266
REMARK  107  A    between atoms: _266  and  _267
REMARK  108  A    between atoms: _272  and  _273
REMARK  109  A    between atoms: _277  and  _280
REMARK  110  A    between atoms: _280  and  _281
REMARK  111  A    between atoms: _281  and  _354
REMARK  112  A    between atoms: _285  and  _287
REMARK  113  A    between atoms: _287  and  _289
REMARK  114  A    between atoms: _289  and  _290
REMARK  115  A    between atoms: _289  and  _292
REMARK  116  A    between atoms: _292  and  _293
REMARK  117  A    between atoms: _296  and  _298
REMARK  118  A    between atoms: _298  and  _299
REMARK  119  A    between atoms: _301  and  _303
REMARK  120  A    between atoms: _303  and  _304
REMARK  121  A    between atoms: _306  and  _308
REMARK  122  A    between atoms: _308  and  _309
REMARK  123  A    between atoms: _308  and  _311
REMARK  124  A    between atoms: _311  and  _312
REMARK  125  A    between atoms: _315  and  _317
REMARK  126  A    between atoms: _317  and  _318
REMARK  127  A    between atoms: _317  and  _320
REMARK  128  A    between atoms: _320  and  _321
REMARK  129  A    between atoms: _324  and  _326
REMARK  130  A    between atoms: _326  and  _327
REMARK  131  A    between atoms: _326  and  _329
REMARK  132  A    between atoms: _329  and  _330
REMARK  133  A    between atoms: _330  and  _331
REMARK  134  A    between atoms: _331  and  _332
REMARK  135  A    between atoms: _341  and  _343
REMARK  136  A    between atoms: _343  and  _344
REMARK  137  A    between atoms: _343  and  _346
REMARK  138  A    between atoms: _348  and  _350
REMARK  139  A    between atoms: _350  and  _351
REMARK  140  A    between atoms: _350  and  _353
REMARK  141  A    between atoms: _353  and  _354
REMARK  142  A    between atoms: _355  and  _357
REMARK  143  A    between atoms: _357  and  _358
REMARK  144  A    between atoms: _357  and  _360
REMARK  145  A    between atoms: _360  and  _361
REMARK  146  A    between atoms: _361  and  _362
REMARK  147  A    between atoms: _365  and  _367
REMARK  148  A    between atoms: _367  and  _368
REMARK  149  A    between atoms: _367  and  _370
REMARK  150  A    between atoms: _370  and  _371
REMARK  151  A    between atoms: _374  and  _376
REMARK  152  A    between atoms: _376  and  _377
REMARK  153  A    between atoms: _376  and  _379
REMARK  154  A    between atoms: _379  and  _380
REMARK  155  A    between atoms: _385  and  _387
REMARK  156  A    between atoms: _387  and  _388
REMARK  157  A    between atoms: _387  and  _390
REMARK  158  A    between atoms: _390  and  _391
REMARK  159  A    between atoms: _394  and  _396
REMARK  160  A    between atoms: _396  and  _397
REMARK  161  A    between atoms: _396  and  _399
REMARK  162  A    between atoms: _399  and  _400
REMARK  163  A    between atoms: _405  and  _407
REMARK  164  A    between atoms: _407  and  _408
REMARK  165  A    between atoms: _407  and  _410
REMARK  166  A    between atoms: _410  and  _411
REMARK  167  A    between atoms: _411  and  _480
REMARK  168  A    between atoms: _412  and  _414
REMARK  169  A    between atoms: _414  and  _415
REMARK  170  A    between atoms: _414  and  _417
REMARK  171  A    between atoms: _417  and  _418
REMARK  172  A    between atoms: _423  and  _424
REMARK  173  A    between atoms: _426  and  _428
REMARK  174  A    between atoms: _428  and  _429
REMARK  175  A    between atoms: _428  and  _431
REMARK  176  A    between atoms: _431  and  _432
REMARK  177  A    between atoms: _432  and  _433
REMARK  178  A    between atoms: _433  and  _434
REMARK  179  A    between atoms: _443  and  _445
REMARK  180  A    between atoms: _445  and  _446
REMARK  181  A    between atoms: _445  and  _448
REMARK  182  A    between atoms: _448  and  _449
REMARK  183  A    between atoms: _452  and  _454
REMARK  184  A    between atoms: _454  and  _455
REMARK  185  A    between atoms: _454  and  _457
REMARK  186  A    between atoms: _457  and  _458
REMARK  187  A    between atoms: _458  and  _459
REMARK  188  A    between atoms: _459  and  _460
REMARK  189  A    between atoms: _460  and  _461
REMARK  190  A    between atoms: _465  and  _467
REMARK  191  A    between atoms: _467  and  _468
REMARK  192  A    between atoms: _467  and  _470
REMARK  193  A    between atoms: _470  and  _471
REMARK  194  A    between atoms: _474  and  _476
REMARK  195  A    between atoms: _476  and  _477
REMARK  196  A    between atoms: _476  and  _479
REMARK  197  A    between atoms: _479  and  _480
REMARK  198  A    between atoms: _481  and  _483
REMARK  199  A    between atoms: _483  and  _484
REMARK  200  A    between atoms: _483  and  _486
REMARK  201  A    between atoms: _486  and  _487
REMARK  202  A    between atoms: _490  and  _492
REMARK  203  A    between atoms: _492  and  _493
REMARK  204  A    between atoms: _496  and  _498
REMARK  205  A    between atoms: _498  and  _499
REMARK  206  A    between atoms: _502  and  _504
REMARK  207  A    between atoms: _504  and  _505
REMARK  208  A    between atoms: _504  and  _507
REMARK  209  A    between atoms: _507  and  _508
REMARK  210  A    between atoms: _514  and  _516
REMARK  211  A    between atoms: _516  and  _517
REMARK  212  A    between atoms: _516  and  _519
REMARK  213  A    between atoms: _519  and  _520
REMARK  214  A    between atoms: _522  and  _524
REMARK  215  A    between atoms: _524  and  _525
REMARK  216  A    between atoms: _524  and  _527
REMARK  217  A    between atoms: _527  and  _528
REMARK  218  A    between atoms: _530  and  _532
REMARK  219  A    between atoms: _532  and  _533
REMARK  220  A    between atoms: _532  and  _535
REMARK  221  A    between atoms: _535  and  _536
REMARK  222  A    between atoms: _536  and  _537
REMARK  223  A    between atoms: _537  and  _538
REMARK  224  A    between atoms: _547  and  _549
REMARK  225  A    between atoms: _549  and  _550
REMARK  226  A    between atoms: _553  and  _555
REMARK  227  A    between atoms: _555  and  _556
REMARK  228  A    between atoms: _555  and  _558
REMARK  229  A    between atoms: _558  and  _559
REMARK  230  A    between atoms: _562  and  _564
REMARK  231  A    between atoms: _564  and  _565
REMARK  232  A    between atoms: _564  and  _567
REMARK  233  A    between atoms: _567  and  _568
REMARK  234  A    between atoms: _578  and  _580
REMARK  235  A    between atoms: _580  and  _581
REMARK  236  A    between atoms: _580  and  _583
REMARK  237  A    between atoms: _583  and  _584
REMARK  238  A    between atoms: _584  and  _585
REMARK  239  A    between atoms: _590  and  _592
REMARK  240  A    between atoms: _592  and  _593
REMARK  241  A    between atoms: _592  and  _595
REMARK  242  A    between atoms: _595  and  _596
REMARK  243  A    between atoms: _602  and  _604
REMARK  244  A    between atoms: _604  and  _605
REMARK  245  A    between atoms: _604  and  _607
REMARK  246  A    between atoms: _607  and  _608
REMARK  247  A    between atoms: _608  and  _609
REMARK  248  A    between atoms: _609  and  _610
REMARK  249  A    between atoms: _619  and  _621
REMARK  250  A    between atoms: _621  and  _622
REMARK  251  A    between atoms: _621  and  _624
REMARK  252  A    between atoms: _624  and  _625
REMARK  253  A    between atoms: _627  and  _629
REMARK  254  A    between atoms: _629  and  _630
REMARK  255  A    between atoms: _629  and  _632
REMARK  256  A    between atoms: _632  and  _633
REMARK  257  A    between atoms: _633  and  _634
REMARK  258  A    between atoms: _636  and  _638
REMARK  259  A    between atoms: _638  and  _639
REMARK  260  A    between atoms: _638  and  _641
REMARK  261  A    between atoms: _641  and  _642
REMARK  262  A    between atoms: _645  and  _647
REMARK  263  A    between atoms: _647  and  _648
REMARK  264  A    between atoms: _647  and  _650
REMARK  265  A    between atoms: _650  and  _651
REMARK  266  A    between atoms: _651  and  _652
REMARK  267  A    between atoms: _652  and  _653
REMARK  268  A    between atoms: _653  and  _654
REMARK  269  A    between atoms: _658  and  _660
REMARK  270  A    between atoms: _660  and  _661
REMARK  271  A    between atoms: _660  and  _663
REMARK  272  A    between atoms: _663  and  _664
REMARK  273  A    between atoms: _670  and  _671
REMARK  274  A    between atoms: _676  and  _678
REMARK  275  A    between atoms: _678  and  _679
REMARK  276  A    between atoms: _678  and  _681
REMARK  277  A    between atoms: _681  and  _682
REMARK  278  A    between atoms: _685  and  _687
REMARK  279  A    between atoms: _687  and  _688
REMARK  280  A    between atoms: _687  and  _690
REMARK  281  A    between atoms: _690  and  _691
REMARK  282  A    between atoms: _691  and  _692
REMARK  283  A    between atoms: _694  and  _696
REMARK  284  A    between atoms: _696  and  _697
REMARK  285  A    between atoms: _696  and  _699
REMARK  286  A    between atoms: _699  and  _700
REMARK  287  A    between atoms: _703  and  _705
REMARK  288  A    between atoms: _705  and  _706
REMARK  289  A    between atoms: _705  and  _708
REMARK  290  A    between atoms: _708  and  _709
REMARK  291  A    between atoms: _715  and  _717
REMARK  292  A    between atoms: _717  and  _718
REMARK  293  A    between atoms: _717  and  _720
REMARK  294  A    between atoms: _720  and  _721
REMARK  295  A    between atoms: _726  and  _728
REMARK  296  A    between atoms: _728  and  _729
REMARK  297  A    between atoms: _728  and  _731
REMARK  298  A    between atoms: _731  and  _732
REMARK  299  A    between atoms: _737  and  _739
REMARK  300  A    between atoms: _739  and  _740
REMARK  301  A    between atoms: _739  and  _742
REMARK  302  A    between atoms: _742  and  _743
REMARK  303  A    between atoms: _743  and  _755
REMARK  304  A    between atoms: _744  and  _746
REMARK  305  A    between atoms: _746  and  _747
REMARK  306  A    between atoms: _749  and  _751
REMARK  307  A    between atoms: _751  and  _752
REMARK  308  A    between atoms: _751  and  _754
REMARK  309  A    between atoms: _754  and  _755
REMARK  310  A    between atoms: _756  and  _758
REMARK  311  A    between atoms: _758  and  _759
REMARK  312  A    between atoms: _758  and  _761
REMARK  313  A    between atoms: _761  and  _762
REMARK  314  A    between atoms: _767  and  _769
REMARK  315  A    between atoms: _769  and  _770
REMARK  316  A    between atoms: _769  and  _772
REMARK  317  A    between atoms: _772  and  _773
REMARK  318  A    between atoms: _778  and  _779
REMARK  319  A    between atoms: _781  and  _783
REMARK  320  A    between atoms: _783  and  _784
REMARK  321  A    between atoms: _783  and  _786
REMARK  322  A    between atoms: _786  and  _787
REMARK                            x       y       z     vdW  Elec       q    Type
REMARK                         _______ _______ _______ _____ _____    ______ ____
ROOT
ATOM      1  O   HOH     1      17.453   7.200  11.808  0.00  0.00    +0.000 OA
ENDROOT
TORSDOF 0
REMARK  Name = ../refined-set-2016/1hn4/1hn4_pocket.pdb
REMARK  322 active torsions:
REMARK  status: ('A' for Active; 'I' for Inactive)
REMARK    1  A    between atoms: _1  and  _5
REMARK    2  A    between atoms: _5  and  _6
REMARK    3  A    between atoms: _8  and  _10
REMARK    4  A    between atoms: _10  and  _11
REMARK    5  A    between atoms: _10  and  _13
REMARK    6  A    between atoms: _13  and  _14
REMARK    7  A    between atoms: _17  and  _19
REMARK    8  A    between atoms: _19  and  _20
REMARK    9  A    between atoms: _19  and  _22
REMARK   10  A    between atoms: _22  and  _23
REMARK   11  A    between atoms: _25  and  _27
REMARK   12  A    between atoms: _27  and  _28
REMARK   13  A    between atoms: _27  and  _30
REMARK   14  A    between atoms: _30  and  _31
REMARK   15  A    between atoms: _33  and  _35
REMARK   16  A    between atoms: _35  and  _36
REMARK   17  A    between atoms: _35  and  _38
REMARK   18  A    between atoms: _38  and  _39
REMARK   19  A    between atoms: _39  and  _40
REMARK   20  A    between atoms: _40  and  _41
REMARK   21  A    between atoms: _50  and  _52
REMARK   22  A    between atoms: _52  and  _53
REMARK   23  A    between atoms: _56  and  _58
REMARK   24  A    between atoms: _58  and  _59
REMARK   25  A    between atoms: _58  and  _61
REMARK   26  A    between atoms: _61  and  _62
REMARK   27  A    between atoms: _65  and  _67
REMARK   28  A    between atoms: _67  and  _68
REMARK   29  A    between atoms: _67  and  _70
REMARK   30  A    between atoms: _70  and  _71
REMARK   31  A    between atoms: _81  and  _83
REMARK   32  A    between atoms: _83  and  _84
REMARK   33  A    between atoms: _83  and  _86
REMARK   34  A    between atoms: _86  and  _87
REMARK   35  A    between atoms: _87  and  _88
REMARK   36  A    between atoms: _93  and  _95
REMARK   37  A    between atoms: _95  and  _96
REMARK   38  A    between atoms: _95  and  _98
REMARK   39  A    between atoms: _98  and  _99
REMARK   40  A    between atoms: _105  and  _107
REMARK   41  A    between atoms: _107  and  _108
REMARK   42  A    between atoms: _107  and  _110
REMARK   43  A    between atoms: _110  and  _111
REMARK   44  A    between atoms: _111  and  _112
REMARK   45  A    between atoms: _112  and  _113
REMARK   46  A    between atoms: _122  and  _124
REMARK   47  A    between atoms: _124  and  _125
REMARK   48  A    between atoms: _124  and  _127
REMARK   49  A    between atoms: _127  and  _128
REMARK   50  A    between atoms: _130  and  _132
REMARK   51  A    between atoms: _132  and  _133
REMARK   52  A    between atoms: _132  and  _135
REMARK   53  A    between atoms: _135  and  _136
REMARK   54  A    between atoms: _136  and  _137
REMARK   55  A    between atoms: _139  and  _141
REMARK   56  A    between atoms: _141  and  _142
REMARK   57  A    between atoms: _141  and  _144
REMARK   58  A    between atoms: _144  and  _145
REMARK   59  A    between atoms: _148  and  _150
REMARK   60  A    between atoms: _150  and  _151
REMARK   61  A    between atoms: _150  and  _153
REMARK   62  A    between atoms: _153  and  _154
REMARK   63  A    between atoms: _154  and  _155
REMARK   64  A    between atoms: _155  and  _156
REMARK   65  A    between atoms: _156  and  _157
REMARK   66  A    between atoms: _161  and  _163
REMARK   67  A    between atoms: _163  and  _164
REMARK   68  A    between atoms: _163  and  _166
REMARK   69  A    between atoms: _166  and  _167
REMARK   70  A    between atoms: _173  and  _174
REMARK   71  A    between atoms: _179  and  _181
REMARK   72  A    between atoms: _181  and  _182
REMARK   73  A    between atoms: _181  and  _184
REMARK   74  A    between atoms: _184  and  _185
REMARK   75  A    between atoms: _188  and  _190
REMARK   76  A    between atoms: _190  and  _191
REMARK   77  A    between atoms: _190  and  _193
REMARK   78  A    between atoms: _193  and  _194
REMARK   79  A    between atoms: _194  and  _195
REMARK   80  A    between atoms: _197  and  _199
REMARK   81  A    between atoms: _199  and  _200
REMARK   82  A    between atoms: _199  and  _202
REMARK   83  A    between atoms: _202  and  _203
REMARK   84  A    between atoms: _206  and  _208
REMARK   85  A    between atoms: _208  and  _209
REMARK   86  A    between atoms: _208  and  _211
REMARK   87  A    between atoms: _211  and  _212
REMARK   88  A    between atoms: _218  and  _220
REMARK   89  A    between atoms: _220  and  _221
REMARK   90  A    between atoms: _220  and  _223
REMARK   91  A    between atoms: _223  and  _224
REMARK   92  A    between atoms: _229  and  _231
REMARK   93  A    between atoms: _231  and  _232
REMARK   94  A    between atoms: _231  and  _234
REMARK   95  A    between atoms: _234  and  _235
REMARK   96  A    between atoms: _240  and  _242
REMARK   97  A    between atoms: _242  and  _243
REMARK   98  A    between atoms: _242  and  _245
REMARK   99  A    between atoms: _245  and  _246
REMARK  100  A    between atoms: _251  and  _252
REMARK  101  A    between atoms: _254  and  _256
REMARK  102  A    between atoms: _256  and  _257
REMARK  103  A    between atoms: _256  and  _259
REMARK  104  A    between atoms: _261  and  _263
REMARK  105  A    between atoms: _263  and  _264
REMARK  106  A    between atoms: _263  and  _266
REMARK  107  A    between atoms: _266  and  _267
REMARK  108  A    between atoms: _272  and  _273
REMARK  109  A    between atoms: _277  and  _280
REMARK  110  A    between atoms: _280  and  _281
REMARK  111  A    between atoms: _281  and  _354
REMARK  112  A    between atoms: _285  and  _287
REMARK  113  A    between atoms: _287  and  _289
REMARK  114  A    between atoms: _289  and  _290
REMARK  115  A    between atoms: _289  and  _292
REMARK  116  A    between atoms: _292  and  _293
REMARK  117  A    between atoms: _296  and  _298
REMARK  118  A    between atoms: _298  and  _299
REMARK  119  A    between atoms: _301  and  _303
REMARK  120  A    between atoms: _303  and  _304
REMARK  121  A    between atoms: _306  and  _308
REMARK  122  A    between atoms: _308  and  _309
REMARK  123  A    between atoms: _308  and  _311
REMARK  124  A    between atoms: _311  and  _312
REMARK  125  A    between atoms: _315  and  _317
REMARK  126  A    between atoms: _317  and  _318
REMARK  127  A    between atoms: _317  and  _320
REMARK  128  A    between atoms: _320  and  _321
REMARK  129  A    between atoms: _324  and  _326
REMARK  130  A    between atoms: _326  and  _327
REMARK  131  A    between atoms: _326  and  _329
REMARK  132  A    between atoms: _329  and  _330
REMARK  133  A    between atoms: _330  and  _331
REMARK  134  A    between atoms: _331  and  _332
REMARK  135  A    between atoms: _341  and  _343
REMARK  136  A    between atoms: _343  and  _344
REMARK  137  A    between atoms: _343  and  _346
REMARK  138  A    between atoms: _348  and  _350
REMARK  139  A    between atoms: _350  and  _351
REMARK  140  A    between atoms: _350  and  _353
REMARK  141  A    between atoms: _353  and  _354
REMARK  142  A    between atoms: _355  and  _357
REMARK  143  A    between atoms: _357  and  _358
REMARK  144  A    between atoms: _357  and  _360
REMARK  145  A    between atoms: _360  and  _361
REMARK  146  A    between atoms: _361  and  _362
REMARK  147  A    between atoms: _365  and  _367
REMARK  148  A    between atoms: _367  and  _368
REMARK  149  A    between atoms: _367  and  _370
REMARK  150  A    between atoms: _370  and  _371
REMARK  151  A    between atoms: _374  and  _376
REMARK  152  A    between atoms: _376  and  _377
REMARK  153  A    between atoms: _376  and  _379
REMARK  154  A    between atoms: _379  and  _380
REMARK  155  A    between atoms: _385  and  _387
REMARK  156  A    between atoms: _387  and  _388
REMARK  157  A    between atoms: _387  and  _390
REMARK  158  A    between atoms: _390  and  _391
REMARK  159  A    between atoms: _394  and  _396
REMARK  160  A    between atoms: _396  and  _397
REMARK  161  A    between atoms: _396  and  _399
REMARK  162  A    between atoms: _399  and  _400
REMARK  163  A    between atoms: _405  and  _407
REMARK  164  A    between atoms: _407  and  _408
REMARK  165  A    between atoms: _407  and  _410
REMARK  166  A    between atoms: _410  and  _411
REMARK  167  A    between atoms: _411  and  _480
REMARK  168  A    between atoms: _412  and  _414
REMARK  169  A    between atoms: _414  and  _415
REMARK  170  A    between atoms: _414  and  _417
REMARK  171  A    between atoms: _417  and  _418
REMARK  172  A    between atoms: _423  and  _424
REMARK  173  A    between atoms: _426  and  _428
REMARK  174  A    between atoms: _428  and  _429
REMARK  175  A    between atoms: _428  and  _431
REMARK  176  A    between atoms: _431  and  _432
REMARK  177  A    between atoms: _432  and  _433
REMARK  178  A    between atoms: _433  and  _434
REMARK  179  A    between atoms: _443  and  _445
REMARK  180  A    between atoms: _445  and  _446
REMARK  181  A    between atoms: _445  and  _448
REMARK  182  A    between atoms: _448  and  _449
REMARK  183  A    between atoms: _452  and  _454
REMARK  184  A    between atoms: _454  and  _455
REMARK  185  A    between atoms: _454  and  _457
REMARK  186  A    between atoms: _457  and  _458
REMARK  187  A    between atoms: _458  and  _459
REMARK  188  A    between atoms: _459  and  _460
REMARK  189  A    between atoms: _460  and  _461
REMARK  190  A    between atoms: _465  and  _467
REMARK  191  A    between atoms: _467  and  _468
REMARK  192  A    between atoms: _467  and  _470
REMARK  193  A    between atoms: _470  and  _471
REMARK  194  A    between atoms: _474  and  _476
REMARK  195  A    between atoms: _476  and  _477
REMARK  196  A    between atoms: _476  and  _479
REMARK  197  A    between atoms: _479  and  _480
REMARK  198  A    between atoms: _481  and  _483
REMARK  199  A    between atoms: _483  and  _484
REMARK  200  A    between atoms: _483  and  _486
REMARK  201  A    between atoms: _486  and  _487
REMARK  202  A    between atoms: _490  and  _492
REMARK  203  A    between atoms: _492  and  _493
REMARK  204  A    between atoms: _496  and  _498
REMARK  205  A    between atoms: _498  and  _499
REMARK  206  A    between atoms: _502  and  _504
REMARK  207  A    between atoms: _504  and  _505
REMARK  208  A    between atoms: _504  and  _507
REMARK  209  A    between atoms: _507  and  _508
REMARK  210  A    between atoms: _514  and  _516
REMARK  211  A    between atoms: _516  and  _517
REMARK  212  A    between atoms: _516  and  _519
REMARK  213  A    between atoms: _519  and  _520
REMARK  214  A    between atoms: _522  and  _524
REMARK  215  A    between atoms: _524  and  _525
REMARK  216  A    between atoms: _524  and  _527
REMARK  217  A    between atoms: _527  and  _528
REMARK  218  A    between atoms: _530  and  _532
REMARK  219  A    between atoms: _532  and  _533
REMARK  220  A    between atoms: _532  and  _535
REMARK  221  A    between atoms: _535  and  _536
REMARK  222  A    between atoms: _536  and  _537
REMARK  223  A    between atoms: _537  and  _538
REMARK  224  A    between atoms: _547  and  _549
REMARK  225  A    between atoms: _549  and  _550
REMARK  226  A    between atoms: _553  and  _555
REMARK  227  A    between atoms: _555  and  _556
REMARK  228  A    between atoms: _555  and  _558
REMARK  229  A    between atoms: _558  and  _559
REMARK  230  A    between atoms: _562  and  _564
REMARK  231  A    between atoms: _564  and  _565
REMARK  232  A    between atoms: _564  and  _567
REMARK  233  A    between atoms: _567  and  _568
REMARK  234  A    between atoms: _578  and  _580
REMARK  235  A    between atoms: _580  and  _581
REMARK  236  A    between atoms: _580  and  _583
REMARK  237  A    between atoms: _583  and  _584
REMARK  238  A    between atoms: _584  and  _585
REMARK  239  A    between atoms: _590  and  _592
REMARK  240  A    between atoms: _592  and  _593
REMARK  241  A    between atoms: _592  and  _595
REMARK  242  A    between atoms: _595  and  _596
REMARK  243  A    between atoms: _602  and  _604
REMARK  244  A    between atoms: _604  and  _605
REMARK  245  A    between atoms: _604  and  _607
REMARK  246  A    between atoms: _607  and  _608
REMARK  247  A    between atoms: _608  and  _609
REMARK  248  A    between atoms: _609  and  _610
REMARK  249  A    between atoms: _619  and  _621
REMARK  250  A    between atoms: _621  and  _622
REMARK  251  A    between atoms: _621  and  _624
REMARK  252  A    between atoms: _624  and  _625
REMARK  253  A    between atoms: _627  and  _629
REMARK  254  A    between atoms: _629  and  _630
REMARK  255  A    between atoms: _629  and  _632
REMARK  256  A    between atoms: _632  and  _633
REMARK  257  A    between atoms: _633  and  _634
REMARK  258  A    between atoms: _636  and  _638
REMARK  259  A    between atoms: _638  and  _639
REMARK  260  A    between atoms: _638  and  _641
REMARK  261  A    between atoms: _641  and  _642
REMARK  262  A    between atoms: _645  and  _647
REMARK  263  A    between atoms: _647  and  _648
REMARK  264  A    between atoms: _647  and  _650
REMARK  265  A    between atoms: _650  and  _651
REMARK  266  A    between atoms: _651  and  _652
REMARK  267  A    between atoms: _652  and  _653
REMARK  268  A    between atoms: _653  and  _654
REMARK  269  A    between atoms: _658  and  _660
REMARK  270  A    between atoms: _660  and  _661
REMARK  271  A    between atoms: _660  and  _663
REMARK  272  A    between atoms: _663  and  _664
REMARK  273  A    between atoms: _670  and  _671
REMARK  274  A    between atoms: _676  and  _678
REMARK  275  A    between atoms: _678  and  _679
REMARK  276  A    between atoms: _678  and  _681
REMARK  277  A    between atoms: _681  and  _682
REMARK  278  A    between atoms: _685  and  _687
REMARK  279  A    between atoms: _687  and  _688
REMARK  280  A    between atoms: _687  and  _690
REMARK  281  A    between atoms: _690  and  _691
REMARK  282  A    between atoms: _691  and  _692
REMARK  283  A    between atoms: _694  and  _696
REMARK  284  A    between atoms: _696  and  _697
REMARK  285  A    between atoms: _696  and  _699
REMARK  286  A    between atoms: _699  and  _700
REMARK  287  A    between atoms: _703  and  _705
REMARK  288  A    between atoms: _705  and  _706
REMARK  289  A    between atoms: _705  and  _708
REMARK  290  A    between atoms: _708  and  _709
REMARK  291  A    between atoms: _715  and  _717
REMARK  292  A    between atoms: _717  and  _718
REMARK  293  A    between atoms: _717  and  _720
REMARK  294  A    between atoms: _720  and  _721
REMARK  295  A    between atoms: _726  and  _728
REMARK  296  A    between atoms: _728  and  _729
REMARK  297  A    between atoms: _728  and  _731
REMARK  298  A    between atoms: _731  and  _732
REMARK  299  A    between atoms: _737  and  _739
REMARK  300  A    between atoms: _739  and  _740
REMARK  301  A    between atoms: _739  and  _742
REMARK  302  A    between atoms: _742  and  _743
REMARK  303  A    between atoms: _743  and  _755
REMARK  304  A    between atoms: _744  and  _746
REMARK  305  A    between atoms: _746  and  _747
REMARK  306  A    between atoms: _749  and  _751
REMARK  307  A    between atoms: _751  and  _752
REMARK  308  A    between atoms: _751  and  _754
REMARK  309  A    between atoms: _754  and  _755
REMARK  310  A    between atoms: _756  and  _758
REMARK  311  A    between atoms: _758  and  _759
REMARK  312  A    between atoms: _758  and  _761
REMARK  313  A    between atoms: _761  and  _762
REMARK  314  A    between atoms: _767  and  _769
REMARK  315  A    between atoms: _769  and  _770
REMARK  316  A    between atoms: _769  and  _772
REMARK  317  A    between atoms: _772  and  _773
REMARK  318  A    between atoms: _778  and  _779
REMARK  319  A    between atoms: _781  and  _783
REMARK  320  A    between atoms: _783  and  _784
REMARK  321  A    between atoms: _783  and  _786
REMARK  322  A    between atoms: _786  and  _787
REMARK                            x       y       z     vdW  Elec       q    Type
REMARK                         _______ _______ _______ _____ _____    ______ ____
ROOT
ATOM      1  O   HOH     1      24.363   9.032   7.877  0.00  0.00    +0.000 OA
ENDROOT
TORSDOF 0
REMARK  Name = ../refined-set-2016/1hn4/1hn4_pocket.pdb
REMARK  322 active torsions:
REMARK  status: ('A' for Active; 'I' for Inactive)
REMARK    1  A    between atoms: _1  and  _5
REMARK    2  A    between atoms: _5  and  _6
REMARK    3  A    between atoms: _8  and  _10
REMARK    4  A    between atoms: _10  and  _11
REMARK    5  A    between atoms: _10  and  _13
REMARK    6  A    between atoms: _13  and  _14
REMARK    7  A    between atoms: _17  and  _19
REMARK    8  A    between atoms: _19  and  _20
REMARK    9  A    between atoms: _19  and  _22
REMARK   10  A    between atoms: _22  and  _23
REMARK   11  A    between atoms: _25  and  _27
REMARK   12  A    between atoms: _27  and  _28
REMARK   13  A    between atoms: _27  and  _30
REMARK   14  A    between atoms: _30  and  _31
REMARK   15  A    between atoms: _33  and  _35
REMARK   16  A    between atoms: _35  and  _36
REMARK   17  A    between atoms: _35  and  _38
REMARK   18  A    between atoms: _38  and  _39
REMARK   19  A    between atoms: _39  and  _40
REMARK   20  A    between atoms: _40  and  _41
REMARK   21  A    between atoms: _50  and  _52
REMARK   22  A    between atoms: _52  and  _53
REMARK   23  A    between atoms: _56  and  _58
REMARK   24  A    between atoms: _58  and  _59
REMARK   25  A    between atoms: _58  and  _61
REMARK   26  A    between atoms: _61  and  _62
REMARK   27  A    between atoms: _65  and  _67
REMARK   28  A    between atoms: _67  and  _68
REMARK   29  A    between atoms: _67  and  _70
REMARK   30  A    between atoms: _70  and  _71
REMARK   31  A    between atoms: _81  and  _83
REMARK   32  A    between atoms: _83  and  _84
REMARK   33  A    between atoms: _83  and  _86
REMARK   34  A    between atoms: _86  and  _87
REMARK   35  A    between atoms: _87  and  _88
REMARK   36  A    between atoms: _93  and  _95
REMARK   37  A    between atoms: _95  and  _96
REMARK   38  A    between atoms: _95  and  _98
REMARK   39  A    between atoms: _98  and  _99
REMARK   40  A    between atoms: _105  and  _107
REMARK   41  A    between atoms: _107  and  _108
REMARK   42  A    between atoms: _107  and  _110
REMARK   43  A    between atoms: _110  and  _111
REMARK   44  A    between atoms: _111  and  _112
REMARK   45  A    between atoms: _112  and  _113
REMARK   46  A    between atoms: _122  and  _124
REMARK   47  A    between atoms: _124  and  _125
REMARK   48  A    between atoms: _124  and  _127
REMARK   49  A    between atoms: _127  and  _128
REMARK   50  A    between atoms: _130  and  _132
REMARK   51  A    between atoms: _132  and  _133
REMARK   52  A    between atoms: _132  and  _135
REMARK   53  A    between atoms: _135  and  _136
REMARK   54  A    between atoms: _136  and  _137
REMARK   55  A    between atoms: _139  and  _141
REMARK   56  A    between atoms: _141  and  _142
REMARK   57  A    between atoms: _141  and  _144
REMARK   58  A    between atoms: _144  and  _145
REMARK   59  A    between atoms: _148  and  _150
REMARK   60  A    between atoms: _150  and  _151
REMARK   61  A    between atoms: _150  and  _153
REMARK   62  A    between atoms: _153  and  _154
REMARK   63  A    between atoms: _154  and  _155
REMARK   64  A    between atoms: _155  and  _156
REMARK   65  A    between atoms: _156  and  _157
REMARK   66  A    between atoms: _161  and  _163
REMARK   67  A    between atoms: _163  and  _164
REMARK   68  A    between atoms: _163  and  _166
REMARK   69  A    between atoms: _166  and  _167
REMARK   70  A    between atoms: _173  and  _174
REMARK   71  A    between atoms: _179  and  _181
REMARK   72  A    between atoms: _181  and  _182
REMARK   73  A    between atoms: _181  and  _184
REMARK   74  A    between atoms: _184  and  _185
REMARK   75  A    between atoms: _188  and  _190
REMARK   76  A    between atoms: _190  and  _191
REMARK   77  A    between atoms: _190  and  _193
REMARK   78  A    between atoms: _193  and  _194
REMARK   79  A    between atoms: _194  and  _195
REMARK   80  A    between atoms: _197  and  _199
REMARK   81  A    between atoms: _199  and  _200
REMARK   82  A    between atoms: _199  and  _202
REMARK   83  A    between atoms: _202  and  _203
REMARK   84  A    between atoms: _206  and  _208
REMARK   85  A    between atoms: _208  and  _209
REMARK   86  A    between atoms: _208  and  _211
REMARK   87  A    between atoms: _211  and  _212
REMARK   88  A    between atoms: _218  and  _220
REMARK   89  A    between atoms: _220  and  _221
REMARK   90  A    between atoms: _220  and  _223
REMARK   91  A    between atoms: _223  and  _224
REMARK   92  A    between atoms: _229  and  _231
REMARK   93  A    between atoms: _231  and  _232
REMARK   94  A    between atoms: _231  and  _234
REMARK   95  A    between atoms: _234  and  _235
REMARK   96  A    between atoms: _240  and  _242
REMARK   97  A    between atoms: _242  and  _243
REMARK   98  A    between atoms: _242  and  _245
REMARK   99  A    between atoms: _245  and  _246
REMARK  100  A    between atoms: _251  and  _252
REMARK  101  A    between atoms: _254  and  _256
REMARK  102  A    between atoms: _256  and  _257
REMARK  103  A    between atoms: _256  and  _259
REMARK  104  A    between atoms: _261  and  _263
REMARK  105  A    between atoms: _263  and  _264
REMARK  106  A    between atoms: _263  and  _266
REMARK  107  A    between atoms: _266  and  _267
REMARK  108  A    between atoms: _272  and  _273
REMARK  109  A    between atoms: _277  and  _280
REMARK  110  A    between atoms: _280  and  _281
REMARK  111  A    between atoms: _281  and  _354
REMARK  112  A    between atoms: _285  and  _287
REMARK  113  A    between atoms: _287  and  _289
REMARK  114  A    between atoms: _289  and  _290
REMARK  115  A    between atoms: _289  and  _292
REMARK  116  A    between atoms: _292  and  _293
REMARK  117  A    between atoms: _296  and  _298
REMARK  118  A    between atoms: _298  and  _299
REMARK  119  A    between atoms: _301  and  _303
REMARK  120  A    between atoms: _303  and  _304
REMARK  121  A    between atoms: _306  and  _308
REMARK  122  A    between atoms: _308  and  _309
REMARK  123  A    between atoms: _308  and  _311
REMARK  124  A    between atoms: _311  and  _312
REMARK  125  A    between atoms: _315  and  _317
REMARK  126  A    between atoms: _317  and  _318
REMARK  127  A    between atoms: _317  and  _320
REMARK  128  A    between atoms: _320  and  _321
REMARK  129  A    between atoms: _324  and  _326
REMARK  130  A    between atoms: _326  and  _327
REMARK  131  A    between atoms: _326  and  _329
REMARK  132  A    between atoms: _329  and  _330
REMARK  133  A    between atoms: _330  and  _331
REMARK  134  A    between atoms: _331  and  _332
REMARK  135  A    between atoms: _341  and  _343
REMARK  136  A    between atoms: _343  and  _344
REMARK  137  A    between atoms: _343  and  _346
REMARK  138  A    between atoms: _348  and  _350
REMARK  139  A    between atoms: _350  and  _351
REMARK  140  A    between atoms: _350  and  _353
REMARK  141  A    between atoms: _353  and  _354
REMARK  142  A    between atoms: _355  and  _357
REMARK  143  A    between atoms: _357  and  _358
REMARK  144  A    between atoms: _357  and  _360
REMARK  145  A    between atoms: _360  and  _361
REMARK  146  A    between atoms: _361  and  _362
REMARK  147  A    between atoms: _365  and  _367
REMARK  148  A    between atoms: _367  and  _368
REMARK  149  A    between atoms: _367  and  _370
REMARK  150  A    between atoms: _370  and  _371
REMARK  151  A    between atoms: _374  and  _376
REMARK  152  A    between atoms: _376  and  _377
REMARK  153  A    between atoms: _376  and  _379
REMARK  154  A    between atoms: _379  and  _380
REMARK  155  A    between atoms: _385  and  _387
REMARK  156  A    between atoms: _387  and  _388
REMARK  157  A    between atoms: _387  and  _390
REMARK  158  A    between atoms: _390  and  _391
REMARK  159  A    between atoms: _394  and  _396
REMARK  160  A    between atoms: _396  and  _397
REMARK  161  A    between atoms: _396  and  _399
REMARK  162  A    between atoms: _399  and  _400
REMARK  163  A    between atoms: _405  and  _407
REMARK  164  A    between atoms: _407  and  _408
REMARK  165  A    between atoms: _407  and  _410
REMARK  166  A    between atoms: _410  and  _411
REMARK  167  A    between atoms: _411  and  _480
REMARK  168  A    between atoms: _412  and  _414
REMARK  169  A    between atoms: _414  and  _415
REMARK  170  A    between atoms: _414  and  _417
REMARK  171  A    between atoms: _417  and  _418
REMARK  172  A    between atoms: _423  and  _424
REMARK  173  A    between atoms: _426  and  _428
REMARK  174  A    between atoms: _428  and  _429
REMARK  175  A    between atoms: _428  and  _431
REMARK  176  A    between atoms: _431  and  _432
REMARK  177  A    between atoms: _432  and  _433
REMARK  178  A    between atoms: _433  and  _434
REMARK  179  A    between atoms: _443  and  _445
REMARK  180  A    between atoms: _445  and  _446
REMARK  181  A    between atoms: _445  and  _448
REMARK  182  A    between atoms: _448  and  _449
REMARK  183  A    between atoms: _452  and  _454
REMARK  184  A    between atoms: _454  and  _455
REMARK  185  A    between atoms: _454  and  _457
REMARK  186  A    between atoms: _457  and  _458
REMARK  187  A    between atoms: _458  and  _459
REMARK  188  A    between atoms: _459  and  _460
REMARK  189  A    between atoms: _460  and  _461
REMARK  190  A    between atoms: _465  and  _467
REMARK  191  A    between atoms: _467  and  _468
REMARK  192  A    between atoms: _467  and  _470
REMARK  193  A    between atoms: _470  and  _471
REMARK  194  A    between atoms: _474  and  _476
REMARK  195  A    between atoms: _476  and  _477
REMARK  196  A    between atoms: _476  and  _479
REMARK  197  A    between atoms: _479  and  _480
REMARK  198  A    between atoms: _481  and  _483
REMARK  199  A    between atoms: _483  and  _484
REMARK  200  A    between atoms: _483  and  _486
REMARK  201  A    between atoms: _486  and  _487
REMARK  202  A    between atoms: _490  and  _492
REMARK  203  A    between atoms: _492  and  _493
REMARK  204  A    between atoms: _496  and  _498
REMARK  205  A    between atoms: _498  and  _499
REMARK  206  A    between atoms: _502  and  _504
REMARK  207  A    between atoms: _504  and  _505
REMARK  208  A    between atoms: _504  and  _507
REMARK  209  A    between atoms: _507  and  _508
REMARK  210  A    between atoms: _514  and  _516
REMARK  211  A    between atoms: _516  and  _517
REMARK  212  A    between atoms: _516  and  _519
REMARK  213  A    between atoms: _519  and  _520
REMARK  214  A    between atoms: _522  and  _524
REMARK  215  A    between atoms: _524  and  _525
REMARK  216  A    between atoms: _524  and  _527
REMARK  217  A    between atoms: _527  and  _528
REMARK  218  A    between atoms: _530  and  _532
REMARK  219  A    between atoms: _532  and  _533
REMARK  220  A    between atoms: _532  and  _535
REMARK  221  A    between atoms: _535  and  _536
REMARK  222  A    between atoms: _536  and  _537
REMARK  223  A    between atoms: _537  and  _538
REMARK  224  A    between atoms: _547  and  _549
REMARK  225  A    between atoms: _549  and  _550
REMARK  226  A    between atoms: _553  and  _555
REMARK  227  A    between atoms: _555  and  _556
REMARK  228  A    between atoms: _555  and  _558
REMARK  229  A    between atoms: _558  and  _559
REMARK  230  A    between atoms: _562  and  _564
REMARK  231  A    between atoms: _564  and  _565
REMARK  232  A    between atoms: _564  and  _567
REMARK  233  A    between atoms: _567  and  _568
REMARK  234  A    between atoms: _578  and  _580
REMARK  235  A    between atoms: _580  and  _581
REMARK  236  A    between atoms: _580  and  _583
REMARK  237  A    between atoms: _583  and  _584
REMARK  238  A    between atoms: _584  and  _585
REMARK  239  A    between atoms: _590  and  _592
REMARK  240  A    between atoms: _592  and  _593
REMARK  241  A    between atoms: _592  and  _595
REMARK  242  A    between atoms: _595  and  _596
REMARK  243  A    between atoms: _602  and  _604
REMARK  244  A    between atoms: _604  and  _605
REMARK  245  A    between atoms: _604  and  _607
REMARK  246  A    between atoms: _607  and  _608
REMARK  247  A    between atoms: _608  and  _609
REMARK  248  A    between atoms: _609  and  _610
REMARK  249  A    between atoms: _619  and  _621
REMARK  250  A    between atoms: _621  and  _622
REMARK  251  A    between atoms: _621  and  _624
REMARK  252  A    between atoms: _624  and  _625
REMARK  253  A    between atoms: _627  and  _629
REMARK  254  A    between atoms: _629  and  _630
REMARK  255  A    between atoms: _629  and  _632
REMARK  256  A    between atoms: _632  and  _633
REMARK  257  A    between atoms: _633  and  _634
REMARK  258  A    between atoms: _636  and  _638
REMARK  259  A    between atoms: _638  and  _639
REMARK  260  A    between atoms: _638  and  _641
REMARK  261  A    between atoms: _641  and  _642
REMARK  262  A    between atoms: _645  and  _647
REMARK  263  A    between atoms: _647  and  _648
REMARK  264  A    between atoms: _647  and  _650
REMARK  265  A    between atoms: _650  and  _651
REMARK  266  A    between atoms: _651  and  _652
REMARK  267  A    between atoms: _652  and  _653
REMARK  268  A    between atoms: _653  and  _654
REMARK  269  A    between atoms: _658  and  _660
REMARK  270  A    between atoms: _660  and  _661
REMARK  271  A    between atoms: _660  and  _663
REMARK  272  A    between atoms: _663  and  _664
REMARK  273  A    between atoms: _670  and  _671
REMARK  274  A    between atoms: _676  and  _678
REMARK  275  A    between atoms: _678  and  _679
REMARK  276  A    between atoms: _678  and  _681
REMARK  277  A    between atoms: _681  and  _682
REMARK  278  A    between atoms: _685  and  _687
REMARK  279  A    between atoms: _687  and  _688
REMARK  280  A    between atoms: _687  and  _690
REMARK  281  A    between atoms: _690  and  _691
REMARK  282  A    between atoms: _691  and  _692
REMARK  283  A    between atoms: _694  and  _696
REMARK  284  A    between atoms: _696  and  _697
REMARK  285  A    between atoms: _696  and  _699
REMARK  286  A    between atoms: _699  and  _700
REMARK  287  A    between atoms: _703  and  _705
REMARK  288  A    between atoms: _705  and  _706
REMARK  289  A    between atoms: _705  and  _708
REMARK  290  A    between atoms: _708  and  _709
REMARK  291  A    between atoms: _715  and  _717
REMARK  292  A    between atoms: _717  and  _718
REMARK  293  A    between atoms: _717  and  _720
REMARK  294  A    between atoms: _720  and  _721
REMARK  295  A    between atoms: _726  and  _728
REMARK  296  A    between atoms: _728  and  _729
REMARK  297  A    between atoms: _728  and  _731
REMARK  298  A    between atoms: _731  and  _732
REMARK  299  A    between atoms: _737  and  _739
REMARK  300  A    between atoms: _739  and  _740
REMARK  301  A    between atoms: _739  and  _742
REMARK  302  A    between atoms: _742  and  _743
REMARK  303  A    between atoms: _743  and  _755
REMARK  304  A    between atoms: _744  and  _746
REMARK  305  A    between atoms: _746  and  _747
REMARK  306  A    between atoms: _749  and  _751
REMARK  307  A    between atoms: _751  and  _752
REMARK  308  A    between atoms: _751  and  _754
REMARK  309  A    between atoms: _754  and  _755
REMARK  310  A    between atoms: _756  and  _758
REMARK  311  A    between atoms: _758  and  _759
REMARK  312  A    between atoms: _758  and  _761
REMARK  313  A    between atoms: _761  and  _762
REMARK  314  A    between atoms: _767  and  _769
REMARK  315  A    between atoms: _769  and  _770
REMARK  316  A    between atoms: _769  and  _772
REMARK  317  A    between atoms: _772  and  _773
REMARK  318  A    between atoms: _778  and  _779
REMARK  319  A    between atoms: _781  and  _783
REMARK  320  A    between atoms: _783  and  _784
REMARK  321  A    between atoms: _783  and  _786
REMARK  322  A    between atoms: _786  and  _787
REMARK                            x       y       z     vdW  Elec       q    Type
REMARK                         _______ _______ _______ _____ _____    ______ ____
ROOT
ATOM      1  O   HOH     1      21.904  18.923  12.230  0.00  0.00    +0.000 OA
ENDROOT
TORSDOF 0
REMARK  Name = ../refined-set-2016/1hn4/1hn4_pocket.pdb
REMARK  322 active torsions:
REMARK  status: ('A' for Active; 'I' for Inactive)
REMARK    1  A    between atoms: _1  and  _5
REMARK    2  A    between atoms: _5  and  _6
REMARK    3  A    between atoms: _8  and  _10
REMARK    4  A    between atoms: _10  and  _11
REMARK    5  A    between atoms: _10  and  _13
REMARK    6  A    between atoms: _13  and  _14
REMARK    7  A    between atoms: _17  and  _19
REMARK    8  A    between atoms: _19  and  _20
REMARK    9  A    between atoms: _19  and  _22
REMARK   10  A    between atoms: _22  and  _23
REMARK   11  A    between atoms: _25  and  _27
REMARK   12  A    between atoms: _27  and  _28
REMARK   13  A    between atoms: _27  and  _30
REMARK   14  A    between atoms: _30  and  _31
REMARK   15  A    between atoms: _33  and  _35
REMARK   16  A    between atoms: _35  and  _36
REMARK   17  A    between atoms: _35  and  _38
REMARK   18  A    between atoms: _38  and  _39
REMARK   19  A    between atoms: _39  and  _40
REMARK   20  A    between atoms: _40  and  _41
REMARK   21  A    between atoms: _50  and  _52
REMARK   22  A    between atoms: _52  and  _53
REMARK   23  A    between atoms: _56  and  _58
REMARK   24  A    between atoms: _58  and  _59
REMARK   25  A    between atoms: _58  and  _61
REMARK   26  A    between atoms: _61  and  _62
REMARK   27  A    between atoms: _65  and  _67
REMARK   28  A    between atoms: _67  and  _68
REMARK   29  A    between atoms: _67  and  _70
REMARK   30  A    between atoms: _70  and  _71
REMARK   31  A    between atoms: _81  and  _83
REMARK   32  A    between atoms: _83  and  _84
REMARK   33  A    between atoms: _83  and  _86
REMARK   34  A    between atoms: _86  and  _87
REMARK   35  A    between atoms: _87  and  _88
REMARK   36  A    between atoms: _93  and  _95
REMARK   37  A    between atoms: _95  and  _96
REMARK   38  A    between atoms: _95  and  _98
REMARK   39  A    between atoms: _98  and  _99
REMARK   40  A    between atoms: _105  and  _107
REMARK   41  A    between atoms: _107  and  _108
REMARK   42  A    between atoms: _107  and  _110
REMARK   43  A    between atoms: _110  and  _111
REMARK   44  A    between atoms: _111  and  _112
REMARK   45  A    between atoms: _112  and  _113
REMARK   46  A    between atoms: _122  and  _124
REMARK   47  A    between atoms: _124  and  _125
REMARK   48  A    between atoms: _124  and  _127
REMARK   49  A    between atoms: _127  and  _128
REMARK   50  A    between atoms: _130  and  _132
REMARK   51  A    between atoms: _132  and  _133
REMARK   52  A    between atoms: _132  and  _135
REMARK   53  A    between atoms: _135  and  _136
REMARK   54  A    between atoms: _136  and  _137
REMARK   55  A    between atoms: _139  and  _141
REMARK   56  A    between atoms: _141  and  _142
REMARK   57  A    between atoms: _141  and  _144
REMARK   58  A    between atoms: _144  and  _145
REMARK   59  A    between atoms: _148  and  _150
REMARK   60  A    between atoms: _150  and  _151
REMARK   61  A    between atoms: _150  and  _153
REMARK   62  A    between atoms: _153  and  _154
REMARK   63  A    between atoms: _154  and  _155
REMARK   64  A    between atoms: _155  and  _156
REMARK   65  A    between atoms: _156  and  _157
REMARK   66  A    between atoms: _161  and  _163
REMARK   67  A    between atoms: _163  and  _164
REMARK   68  A    between atoms: _163  and  _166
REMARK   69  A    between atoms: _166  and  _167
REMARK   70  A    between atoms: _173  and  _174
REMARK   71  A    between atoms: _179  and  _181
REMARK   72  A    between atoms: _181  and  _182
REMARK   73  A    between atoms: _181  and  _184
REMARK   74  A    between atoms: _184  and  _185
REMARK   75  A    between atoms: _188  and  _190
REMARK   76  A    between atoms: _190  and  _191
REMARK   77  A    between atoms: _190  and  _193
REMARK   78  A    between atoms: _193  and  _194
REMARK   79  A    between atoms: _194  and  _195
REMARK   80  A    between atoms: _197  and  _199
REMARK   81  A    between atoms: _199  and  _200
REMARK   82  A    between atoms: _199  and  _202
REMARK   83  A    between atoms: _202  and  _203
REMARK   84  A    between atoms: _206  and  _208
REMARK   85  A    between atoms: _208  and  _209
REMARK   86  A    between atoms: _208  and  _211
REMARK   87  A    between atoms: _211  and  _212
REMARK   88  A    between atoms: _218  and  _220
REMARK   89  A    between atoms: _220  and  _221
REMARK   90  A    between atoms: _220  and  _223
REMARK   91  A    between atoms: _223  and  _224
REMARK   92  A    between atoms: _229  and  _231
REMARK   93  A    between atoms: _231  and  _232
REMARK   94  A    between atoms: _231  and  _234
REMARK   95  A    between atoms: _234  and  _235
REMARK   96  A    between atoms: _240  and  _242
REMARK   97  A    between atoms: _242  and  _243
REMARK   98  A    between atoms: _242  and  _245
REMARK   99  A    between atoms: _245  and  _246
REMARK  100  A    between atoms: _251  and  _252
REMARK  101  A    between atoms: _254  and  _256
REMARK  102  A    between atoms: _256  and  _257
REMARK  103  A    between atoms: _256  and  _259
REMARK  104  A    between atoms: _261  and  _263
REMARK  105  A    between atoms: _263  and  _264
REMARK  106  A    between atoms: _263  and  _266
REMARK  107  A    between atoms: _266  and  _267
REMARK  108  A    between atoms: _272  and  _273
REMARK  109  A    between atoms: _277  and  _280
REMARK  110  A    between atoms: _280  and  _281
REMARK  111  A    between atoms: _281  and  _354
REMARK  112  A    between atoms: _285  and  _287
REMARK  113  A    between atoms: _287  and  _289
REMARK  114  A    between atoms: _289  and  _290
REMARK  115  A    between atoms: _289  and  _292
REMARK  116  A    between atoms: _292  and  _293
REMARK  117  A    between atoms: _296  and  _298
REMARK  118  A    between atoms: _298  and  _299
REMARK  119  A    between atoms: _301  and  _303
REMARK  120  A    between atoms: _303  and  _304
REMARK  121  A    between atoms: _306  and  _308
REMARK  122  A    between atoms: _308  and  _309
REMARK  123  A    between atoms: _308  and  _311
REMARK  124  A    between atoms: _311  and  _312
REMARK  125  A    between atoms: _315  and  _317
REMARK  126  A    between atoms: _317  and  _318
REMARK  127  A    between atoms: _317  and  _320
REMARK  128  A    between atoms: _320  and  _321
REMARK  129  A    between atoms: _324  and  _326
REMARK  130  A    between atoms: _326  and  _327
REMARK  131  A    between atoms: _326  and  _329
REMARK  132  A    between atoms: _329  and  _330
REMARK  133  A    between atoms: _330  and  _331
REMARK  134  A    between atoms: _331  and  _332
REMARK  135  A    between atoms: _341  and  _343
REMARK  136  A    between atoms: _343  and  _344
REMARK  137  A    between atoms: _343  and  _346
REMARK  138  A    between atoms: _348  and  _350
REMARK  139  A    between atoms: _350  and  _351
REMARK  140  A    between atoms: _350  and  _353
REMARK  141  A    between atoms: _353  and  _354
REMARK  142  A    between atoms: _355  and  _357
REMARK  143  A    between atoms: _357  and  _358
REMARK  144  A    between atoms: _357  and  _360
REMARK  145  A    between atoms: _360  and  _361
REMARK  146  A    between atoms: _361  and  _362
REMARK  147  A    between atoms: _365  and  _367
REMARK  148  A    between atoms: _367  and  _368
REMARK  149  A    between atoms: _367  and  _370
REMARK  150  A    between atoms: _370  and  _371
REMARK  151  A    between atoms: _374  and  _376
REMARK  152  A    between atoms: _376  and  _377
REMARK  153  A    between atoms: _376  and  _379
REMARK  154  A    between atoms: _379  and  _380
REMARK  155  A    between atoms: _385  and  _387
REMARK  156  A    between atoms: _387  and  _388
REMARK  157  A    between atoms: _387  and  _390
REMARK  158  A    between atoms: _390  and  _391
REMARK  159  A    between atoms: _394  and  _396
REMARK  160  A    between atoms: _396  and  _397
REMARK  161  A    between atoms: _396  and  _399
REMARK  162  A    between atoms: _399  and  _400
REMARK  163  A    between atoms: _405  and  _407
REMARK  164  A    between atoms: _407  and  _408
REMARK  165  A    between atoms: _407  and  _410
REMARK  166  A    between atoms: _410  and  _411
REMARK  167  A    between atoms: _411  and  _480
REMARK  168  A    between atoms: _412  and  _414
REMARK  169  A    between atoms: _414  and  _415
REMARK  170  A    between atoms: _414  and  _417
REMARK  171  A    between atoms: _417  and  _418
REMARK  172  A    between atoms: _423  and  _424
REMARK  173  A    between atoms: _426  and  _428
REMARK  174  A    between atoms: _428  and  _429
REMARK  175  A    between atoms: _428  and  _431
REMARK  176  A    between atoms: _431  and  _432
REMARK  177  A    between atoms: _432  and  _433
REMARK  178  A    between atoms: _433  and  _434
REMARK  179  A    between atoms: _443  and  _445
REMARK  180  A    between atoms: _445  and  _446
REMARK  181  A    between atoms: _445  and  _448
REMARK  182  A    between atoms: _448  and  _449
REMARK  183  A    between atoms: _452  and  _454
REMARK  184  A    between atoms: _454  and  _455
REMARK  185  A    between atoms: _454  and  _457
REMARK  186  A    between atoms: _457  and  _458
REMARK  187  A    between atoms: _458  and  _459
REMARK  188  A    between atoms: _459  and  _460
REMARK  189  A    between atoms: _460  and  _461
REMARK  190  A    between atoms: _465  and  _467
REMARK  191  A    between atoms: _467  and  _468
REMARK  192  A    between atoms: _467  and  _470
REMARK  193  A    between atoms: _470  and  _471
REMARK  194  A    between atoms: _474  and  _476
REMARK  195  A    between atoms: _476  and  _477
REMARK  196  A    between atoms: _476  and  _479
REMARK  197  A    between atoms: _479  and  _480
REMARK  198  A    between atoms: _481  and  _483
REMARK  199  A    between atoms: _483  and  _484
REMARK  200  A    between atoms: _483  and  _486
REMARK  201  A    between atoms: _486  and  _487
REMARK  202  A    between atoms: _490  and  _492
REMARK  203  A    between atoms: _492  and  _493
REMARK  204  A    between atoms: _496  and  _498
REMARK  205  A    between atoms: _498  and  _499
REMARK  206  A    between atoms: _502  and  _504
REMARK  207  A    between atoms: _504  and  _505
REMARK  208  A    between atoms: _504  and  _507
REMARK  209  A    between atoms: _507  and  _508
REMARK  210  A    between atoms: _514  and  _516
REMARK  211  A    between atoms: _516  and  _517
REMARK  212  A    between atoms: _516  and  _519
REMARK  213  A    between atoms: _519  and  _520
REMARK  214  A    between atoms: _522  and  _524
REMARK  215  A    between atoms: _524  and  _525
REMARK  216  A    between atoms: _524  and  _527
REMARK  217  A    between atoms: _527  and  _528
REMARK  218  A    between atoms: _530  and  _532
REMARK  219  A    between atoms: _532  and  _533
REMARK  220  A    between atoms: _532  and  _535
REMARK  221  A    between atoms: _535  and  _536
REMARK  222  A    between atoms: _536  and  _537
REMARK  223  A    between atoms: _537  and  _538
REMARK  224  A    between atoms: _547  and  _549
REMARK  225  A    between atoms: _549  and  _550
REMARK  226  A    between atoms: _553  and  _555
REMARK  227  A    between atoms: _555  and  _556
REMARK  228  A    between atoms: _555  and  _558
REMARK  229  A    between atoms: _558  and  _559
REMARK  230  A    between atoms: _562  and  _564
REMARK  231  A    between atoms: _564  and  _565
REMARK  232  A    between atoms: _564  and  _567
REMARK  233  A    between atoms: _567  and  _568
REMARK  234  A    between atoms: _578  and  _580
REMARK  235  A    between atoms: _580  and  _581
REMARK  236  A    between atoms: _580  and  _583
REMARK  237  A    between atoms: _583  and  _584
REMARK  238  A    between atoms: _584  and  _585
REMARK  239  A    between atoms: _590  and  _592
REMARK  240  A    between atoms: _592  and  _593
REMARK  241  A    between atoms: _592  and  _595
REMARK  242  A    between atoms: _595  and  _596
REMARK  243  A    between atoms: _602  and  _604
REMARK  244  A    between atoms: _604  and  _605
REMARK  245  A    between atoms: _604  and  _607
REMARK  246  A    between atoms: _607  and  _608
REMARK  247  A    between atoms: _608  and  _609
REMARK  248  A    between atoms: _609  and  _610
REMARK  249  A    between atoms: _619  and  _621
REMARK  250  A    between atoms: _621  and  _622
REMARK  251  A    between atoms: _621  and  _624
REMARK  252  A    between atoms: _624  and  _625
REMARK  253  A    between atoms: _627  and  _629
REMARK  254  A    between atoms: _629  and  _630
REMARK  255  A    between atoms: _629  and  _632
REMARK  256  A    between atoms: _632  and  _633
REMARK  257  A    between atoms: _633  and  _634
REMARK  258  A    between atoms: _636  and  _638
REMARK  259  A    between atoms: _638  and  _639
REMARK  260  A    between atoms: _638  and  _641
REMARK  261  A    between atoms: _641  and  _642
REMARK  262  A    between atoms: _645  and  _647
REMARK  263  A    between atoms: _647  and  _648
REMARK  264  A    between atoms: _647  and  _650
REMARK  265  A    between atoms: _650  and  _651
REMARK  266  A    between atoms: _651  and  _652
REMARK  267  A    between atoms: _652  and  _653
REMARK  268  A    between atoms: _653  and  _654
REMARK  269  A    between atoms: _658  and  _660
REMARK  270  A    between atoms: _660  and  _661
REMARK  271  A    between atoms: _660  and  _663
REMARK  272  A    between atoms: _663  and  _664
REMARK  273  A    between atoms: _670  and  _671
REMARK  274  A    between atoms: _676  and  _678
REMARK  275  A    between atoms: _678  and  _679
REMARK  276  A    between atoms: _678  and  _681
REMARK  277  A    between atoms: _681  and  _682
REMARK  278  A    between atoms: _685  and  _687
REMARK  279  A    between atoms: _687  and  _688
REMARK  280  A    between atoms: _687  and  _690
REMARK  281  A    between atoms: _690  and  _691
REMARK  282  A    between atoms: _691  and  _692
REMARK  283  A    between atoms: _694  and  _696
REMARK  284  A    between atoms: _696  and  _697
REMARK  285  A    between atoms: _696  and  _699
REMARK  286  A    between atoms: _699  and  _700
REMARK  287  A    between atoms: _703  and  _705
REMARK  288  A    between atoms: _705  and  _706
REMARK  289  A    between atoms: _705  and  _708
REMARK  290  A    between atoms: _708  and  _709
REMARK  291  A    between atoms: _715  and  _717
REMARK  292  A    between atoms: _717  and  _718
REMARK  293  A    between atoms: _717  and  _720
REMARK  294  A    between atoms: _720  and  _721
REMARK  295  A    between atoms: _726  and  _728
REMARK  296  A    between atoms: _728  and  _729
REMARK  297  A    between atoms: _728  and  _731
REMARK  298  A    between atoms: _731  and  _732
REMARK  299  A    between atoms: _737  and  _739
REMARK  300  A    between atoms: _739  and  _740
REMARK  301  A    between atoms: _739  and  _742
REMARK  302  A    between atoms: _742  and  _743
REMARK  303  A    between atoms: _743  and  _755
REMARK  304  A    between atoms: _744  and  _746
REMARK  305  A    between atoms: _746  and  _747
REMARK  306  A    between atoms: _749  and  _751
REMARK  307  A    between atoms: _751  and  _752
REMARK  308  A    between atoms: _751  and  _754
REMARK  309  A    between atoms: _754  and  _755
REMARK  310  A    between atoms: _756  and  _758
REMARK  311  A    between atoms: _758  and  _759
REMARK  312  A    between atoms: _758  and  _761
REMARK  313  A    between atoms: _761  and  _762
REMARK  314  A    between atoms: _767  and  _769
REMARK  315  A    between atoms: _769  and  _770
REMARK  316  A    between atoms: _769  and  _772
REMARK  317  A    between atoms: _772  and  _773
REMARK  318  A    between atoms: _778  and  _779
REMARK  319  A    between atoms: _781  and  _783
REMARK  320  A    between atoms: _783  and  _784
REMARK  321  A    between atoms: _783  and  _786
REMARK  322  A    between atoms: _786  and  _787
REMARK                            x       y       z     vdW  Elec       q    Type
REMARK                         _______ _______ _______ _____ _____    ______ ____
ROOT
ATOM      1  O   HOH     1      21.987  10.222   5.039  0.00  0.00    +0.000 OA
ENDROOT
TORSDOF 0
REMARK  Name = ../refined-set-2016/1hn4/1hn4_pocket.pdb
REMARK  322 active torsions:
REMARK  status: ('A' for Active; 'I' for Inactive)
REMARK    1  A    between atoms: _1  and  _5
REMARK    2  A    between atoms: _5  and  _6
REMARK    3  A    between atoms: _8  and  _10
REMARK    4  A    between atoms: _10  and  _11
REMARK    5  A    between atoms: _10  and  _13
REMARK    6  A    between atoms: _13  and  _14
REMARK    7  A    between atoms: _17  and  _19
REMARK    8  A    between atoms: _19  and  _20
REMARK    9  A    between atoms: _19  and  _22
REMARK   10  A    between atoms: _22  and  _23
REMARK   11  A    between atoms: _25  and  _27
REMARK   12  A    between atoms: _27  and  _28
REMARK   13  A    between atoms: _27  and  _30
REMARK   14  A    between atoms: _30  and  _31
REMARK   15  A    between atoms: _33  and  _35
REMARK   16  A    between atoms: _35  and  _36
REMARK   17  A    between atoms: _35  and  _38
REMARK   18  A    between atoms: _38  and  _39
REMARK   19  A    between atoms: _39  and  _40
REMARK   20  A    between atoms: _40  and  _41
REMARK   21  A    between atoms: _50  and  _52
REMARK   22  A    between atoms: _52  and  _53
REMARK   23  A    between atoms: _56  and  _58
REMARK   24  A    between atoms: _58  and  _59
REMARK   25  A    between atoms: _58  and  _61
REMARK   26  A    between atoms: _61  and  _62
REMARK   27  A    between atoms: _65  and  _67
REMARK   28  A    between atoms: _67  and  _68
REMARK   29  A    between atoms: _67  and  _70
REMARK   30  A    between atoms: _70  and  _71
REMARK   31  A    between atoms: _81  and  _83
REMARK   32  A    between atoms: _83  and  _84
REMARK   33  A    between atoms: _83  and  _86
REMARK   34  A    between atoms: _86  and  _87
REMARK   35  A    between atoms: _87  and  _88
REMARK   36  A    between atoms: _93  and  _95
REMARK   37  A    between atoms: _95  and  _96
REMARK   38  A    between atoms: _95  and  _98
REMARK   39  A    between atoms: _98  and  _99
REMARK   40  A    between atoms: _105  and  _107
REMARK   41  A    between atoms: _107  and  _108
REMARK   42  A    between atoms: _107  and  _110
REMARK   43  A    between atoms: _110  and  _111
REMARK   44  A    between atoms: _111  and  _112
REMARK   45  A    between atoms: _112  and  _113
REMARK   46  A    between atoms: _122  and  _124
REMARK   47  A    between atoms: _124  and  _125
REMARK   48  A    between atoms: _124  and  _127
REMARK   49  A    between atoms: _127  and  _128
REMARK   50  A    between atoms: _130  and  _132
REMARK   51  A    between atoms: _132  and  _133
REMARK   52  A    between atoms: _132  and  _135
REMARK   53  A    between atoms: _135  and  _136
REMARK   54  A    between atoms: _136  and  _137
REMARK   55  A    between atoms: _139  and  _141
REMARK   56  A    between atoms: _141  and  _142
REMARK   57  A    between atoms: _141  and  _144
REMARK   58  A    between atoms: _144  and  _145
REMARK   59  A    between atoms: _148  and  _150
REMARK   60  A    between atoms: _150  and  _151
REMARK   61  A    between atoms: _150  and  _153
REMARK   62  A    between atoms: _153  and  _154
REMARK   63  A    between atoms: _154  and  _155
REMARK   64  A    between atoms: _155  and  _156
REMARK   65  A    between atoms: _156  and  _157
REMARK   66  A    between atoms: _161  and  _163
REMARK   67  A    between atoms: _163  and  _164
REMARK   68  A    between atoms: _163  and  _166
REMARK   69  A    between atoms: _166  and  _167
REMARK   70  A    between atoms: _173  and  _174
REMARK   71  A    between atoms: _179  and  _181
REMARK   72  A    between atoms: _181  and  _182
REMARK   73  A    between atoms: _181  and  _184
REMARK   74  A    between atoms: _184  and  _185
REMARK   75  A    between atoms: _188  and  _190
REMARK   76  A    between atoms: _190  and  _191
REMARK   77  A    between atoms: _190  and  _193
REMARK   78  A    between atoms: _193  and  _194
REMARK   79  A    between atoms: _194  and  _195
REMARK   80  A    between atoms: _197  and  _199
REMARK   81  A    between atoms: _199  and  _200
REMARK   82  A    between atoms: _199  and  _202
REMARK   83  A    between atoms: _202  and  _203
REMARK   84  A    between atoms: _206  and  _208
REMARK   85  A    between atoms: _208  and  _209
REMARK   86  A    between atoms: _208  and  _211
REMARK   87  A    between atoms: _211  and  _212
REMARK   88  A    between atoms: _218  and  _220
REMARK   89  A    between atoms: _220  and  _221
REMARK   90  A    between atoms: _220  and  _223
REMARK   91  A    between atoms: _223  and  _224
REMARK   92  A    between atoms: _229  and  _231
REMARK   93  A    between atoms: _231  and  _232
REMARK   94  A    between atoms: _231  and  _234
REMARK   95  A    between atoms: _234  and  _235
REMARK   96  A    between atoms: _240  and  _242
REMARK   97  A    between atoms: _242  and  _243
REMARK   98  A    between atoms: _242  and  _245
REMARK   99  A    between atoms: _245  and  _246
REMARK  100  A    between atoms: _251  and  _252
REMARK  101  A    between atoms: _254  and  _256
REMARK  102  A    between atoms: _256  and  _257
REMARK  103  A    between atoms: _256  and  _259
REMARK  104  A    between atoms: _261  and  _263
REMARK  105  A    between atoms: _263  and  _264
REMARK  106  A    between atoms: _263  and  _266
REMARK  107  A    between atoms: _266  and  _267
REMARK  108  A    between atoms: _272  and  _273
REMARK  109  A    between atoms: _277  and  _280
REMARK  110  A    between atoms: _280  and  _281
REMARK  111  A    between atoms: _281  and  _354
REMARK  112  A    between atoms: _285  and  _287
REMARK  113  A    between atoms: _287  and  _289
REMARK  114  A    between atoms: _289  and  _290
REMARK  115  A    between atoms: _289  and  _292
REMARK  116  A    between atoms: _292  and  _293
REMARK  117  A    between atoms: _296  and  _298
REMARK  118  A    between atoms: _298  and  _299
REMARK  119  A    between atoms: _301  and  _303
REMARK  120  A    between atoms: _303  and  _304
REMARK  121  A    between atoms: _306  and  _308
REMARK  122  A    between atoms: _308  and  _309
REMARK  123  A    between atoms: _308  and  _311
REMARK  124  A    between atoms: _311  and  _312
REMARK  125  A    between atoms: _315  and  _317
REMARK  126  A    between atoms: _317  and  _318
REMARK  127  A    between atoms: _317  and  _320
REMARK  128  A    between atoms: _320  and  _321
REMARK  129  A    between atoms: _324  and  _326
REMARK  130  A    between atoms: _326  and  _327
REMARK  131  A    between atoms: _326  and  _329
REMARK  132  A    between atoms: _329  and  _330
REMARK  133  A    between atoms: _330  and  _331
REMARK  134  A    between atoms: _331  and  _332
REMARK  135  A    between atoms: _341  and  _343
REMARK  136  A    between atoms: _343  and  _344
REMARK  137  A    between atoms: _343  and  _346
REMARK  138  A    between atoms: _348  and  _350
REMARK  139  A    between atoms: _350  and  _351
REMARK  140  A    between atoms: _350  and  _353
REMARK  141  A    between atoms: _353  and  _354
REMARK  142  A    between atoms: _355  and  _357
REMARK  143  A    between atoms: _357  and  _358
REMARK  144  A    between atoms: _357  and  _360
REMARK  145  A    between atoms: _360  and  _361
REMARK  146  A    between atoms: _361  and  _362
REMARK  147  A    between atoms: _365  and  _367
REMARK  148  A    between atoms: _367  and  _368
REMARK  149  A    between atoms: _367  and  _370
REMARK  150  A    between atoms: _370  and  _371
REMARK  151  A    between atoms: _374  and  _376
REMARK  152  A    between atoms: _376  and  _377
REMARK  153  A    between atoms: _376  and  _379
REMARK  154  A    between atoms: _379  and  _380
REMARK  155  A    between atoms: _385  and  _387
REMARK  156  A    between atoms: _387  and  _388
REMARK  157  A    between atoms: _387  and  _390
REMARK  158  A    between atoms: _390  and  _391
REMARK  159  A    between atoms: _394  and  _396
REMARK  160  A    between atoms: _396  and  _397
REMARK  161  A    between atoms: _396  and  _399
REMARK  162  A    between atoms: _399  and  _400
REMARK  163  A    between atoms: _405  and  _407
REMARK  164  A    between atoms: _407  and  _408
REMARK  165  A    between atoms: _407  and  _410
REMARK  166  A    between atoms: _410  and  _411
REMARK  167  A    between atoms: _411  and  _480
REMARK  168  A    between atoms: _412  and  _414
REMARK  169  A    between atoms: _414  and  _415
REMARK  170  A    between atoms: _414  and  _417
REMARK  171  A    between atoms: _417  and  _418
REMARK  172  A    between atoms: _423  and  _424
REMARK  173  A    between atoms: _426  and  _428
REMARK  174  A    between atoms: _428  and  _429
REMARK  175  A    between atoms: _428  and  _431
REMARK  176  A    between atoms: _431  and  _432
REMARK  177  A    between atoms: _432  and  _433
REMARK  178  A    between atoms: _433  and  _434
REMARK  179  A    between atoms: _443  and  _445
REMARK  180  A    between atoms: _445  and  _446
REMARK  181  A    between atoms: _445  and  _448
REMARK  182  A    between atoms: _448  and  _449
REMARK  183  A    between atoms: _452  and  _454
REMARK  184  A    between atoms: _454  and  _455
REMARK  185  A    between atoms: _454  and  _457
REMARK  186  A    between atoms: _457  and  _458
REMARK  187  A    between atoms: _458  and  _459
REMARK  188  A    between atoms: _459  and  _460
REMARK  189  A    between atoms: _460  and  _461
REMARK  190  A    between atoms: _465  and  _467
REMARK  191  A    between atoms: _467  and  _468
REMARK  192  A    between atoms: _467  and  _470
REMARK  193  A    between atoms: _470  and  _471
REMARK  194  A    between atoms: _474  and  _476
REMARK  195  A    between atoms: _476  and  _477
REMARK  196  A    between atoms: _476  and  _479
REMARK  197  A    between atoms: _479  and  _480
REMARK  198  A    between atoms: _481  and  _483
REMARK  199  A    between atoms: _483  and  _484
REMARK  200  A    between atoms: _483  and  _486
REMARK  201  A    between atoms: _486  and  _487
REMARK  202  A    between atoms: _490  and  _492
REMARK  203  A    between atoms: _492  and  _493
REMARK  204  A    between atoms: _496  and  _498
REMARK  205  A    between atoms: _498  and  _499
REMARK  206  A    between atoms: _502  and  _504
REMARK  207  A    between atoms: _504  and  _505
REMARK  208  A    between atoms: _504  and  _507
REMARK  209  A    between atoms: _507  and  _508
REMARK  210  A    between atoms: _514  and  _516
REMARK  211  A    between atoms: _516  and  _517
REMARK  212  A    between atoms: _516  and  _519
REMARK  213  A    between atoms: _519  and  _520
REMARK  214  A    between atoms: _522  and  _524
REMARK  215  A    between atoms: _524  and  _525
REMARK  216  A    between atoms: _524  and  _527
REMARK  217  A    between atoms: _527  and  _528
REMARK  218  A    between atoms: _530  and  _532
REMARK  219  A    between atoms: _532  and  _533
REMARK  220  A    between atoms: _532  and  _535
REMARK  221  A    between atoms: _535  and  _536
REMARK  222  A    between atoms: _536  and  _537
REMARK  223  A    between atoms: _537  and  _538
REMARK  224  A    between atoms: _547  and  _549
REMARK  225  A    between atoms: _549  and  _550
REMARK  226  A    between atoms: _553  and  _555
REMARK  227  A    between atoms: _555  and  _556
REMARK  228  A    between atoms: _555  and  _558
REMARK  229  A    between atoms: _558  and  _559
REMARK  230  A    between atoms: _562  and  _564
REMARK  231  A    between atoms: _564  and  _565
REMARK  232  A    between atoms: _564  and  _567
REMARK  233  A    between atoms: _567  and  _568
REMARK  234  A    between atoms: _578  and  _580
REMARK  235  A    between atoms: _580  and  _581
REMARK  236  A    between atoms: _580  and  _583
REMARK  237  A    between atoms: _583  and  _584
REMARK  238  A    between atoms: _584  and  _585
REMARK  239  A    between atoms: _590  and  _592
REMARK  240  A    between atoms: _592  and  _593
REMARK  241  A    between atoms: _592  and  _595
REMARK  242  A    between atoms: _595  and  _596
REMARK  243  A    between atoms: _602  and  _604
REMARK  244  A    between atoms: _604  and  _605
REMARK  245  A    between atoms: _604  and  _607
REMARK  246  A    between atoms: _607  and  _608
REMARK  247  A    between atoms: _608  and  _609
REMARK  248  A    between atoms: _609  and  _610
REMARK  249  A    between atoms: _619  and  _621
REMARK  250  A    between atoms: _621  and  _622
REMARK  251  A    between atoms: _621  and  _624
REMARK  252  A    between atoms: _624  and  _625
REMARK  253  A    between atoms: _627  and  _629
REMARK  254  A    between atoms: _629  and  _630
REMARK  255  A    between atoms: _629  and  _632
REMARK  256  A    between atoms: _632  and  _633
REMARK  257  A    between atoms: _633  and  _634
REMARK  258  A    between atoms: _636  and  _638
REMARK  259  A    between atoms: _638  and  _639
REMARK  260  A    between atoms: _638  and  _641
REMARK  261  A    between atoms: _641  and  _642
REMARK  262  A    between atoms: _645  and  _647
REMARK  263  A    between atoms: _647  and  _648
REMARK  264  A    between atoms: _647  and  _650
REMARK  265  A    between atoms: _650  and  _651
REMARK  266  A    between atoms: _651  and  _652
REMARK  267  A    between atoms: _652  and  _653
REMARK  268  A    between atoms: _653  and  _654
REMARK  269  A    between atoms: _658  and  _660
REMARK  270  A    between atoms: _660  and  _661
REMARK  271  A    between atoms: _660  and  _663
REMARK  272  A    between atoms: _663  and  _664
REMARK  273  A    between atoms: _670  and  _671
REMARK  274  A    between atoms: _676  and  _678
REMARK  275  A    between atoms: _678  and  _679
REMARK  276  A    between atoms: _678  and  _681
REMARK  277  A    between atoms: _681  and  _682
REMARK  278  A    between atoms: _685  and  _687
REMARK  279  A    between atoms: _687  and  _688
REMARK  280  A    between atoms: _687  and  _690
REMARK  281  A    between atoms: _690  and  _691
REMARK  282  A    between atoms: _691  and  _692
REMARK  283  A    between atoms: _694  and  _696
REMARK  284  A    between atoms: _696  and  _697
REMARK  285  A    between atoms: _696  and  _699
REMARK  286  A    between atoms: _699  and  _700
REMARK  287  A    between atoms: _703  and  _705
REMARK  288  A    between atoms: _705  and  _706
REMARK  289  A    between atoms: _705  and  _708
REMARK  290  A    between atoms: _708  and  _709
REMARK  291  A    between atoms: _715  and  _717
REMARK  292  A    between atoms: _717  and  _718
REMARK  293  A    between atoms: _717  and  _720
REMARK  294  A    between atoms: _720  and  _721
REMARK  295  A    between atoms: _726  and  _728
REMARK  296  A    between atoms: _728  and  _729
REMARK  297  A    between atoms: _728  and  _731
REMARK  298  A    between atoms: _731  and  _732
REMARK  299  A    between atoms: _737  and  _739
REMARK  300  A    between atoms: _739  and  _740
REMARK  301  A    between atoms: _739  and  _742
REMARK  302  A    between atoms: _742  and  _743
REMARK  303  A    between atoms: _743  and  _755
REMARK  304  A    between atoms: _744  and  _746
REMARK  305  A    between atoms: _746  and  _747
REMARK  306  A    between atoms: _749  and  _751
REMARK  307  A    between atoms: _751  and  _752
REMARK  308  A    between atoms: _751  and  _754
REMARK  309  A    between atoms: _754  and  _755
REMARK  310  A    between atoms: _756  and  _758
REMARK  311  A    between atoms: _758  and  _759
REMARK  312  A    between atoms: _758  and  _761
REMARK  313  A    between atoms: _761  and  _762
REMARK  314  A    between atoms: _767  and  _769
REMARK  315  A    between atoms: _769  and  _770
REMARK  316  A    between atoms: _769  and  _772
REMARK  317  A    between atoms: _772  and  _773
REMARK  318  A    between atoms: _778  and  _779
REMARK  319  A    between atoms: _781  and  _783
REMARK  320  A    between atoms: _783  and  _784
REMARK  321  A    between atoms: _783  and  _786
REMARK  322  A    between atoms: _786  and  _787
REMARK                            x       y       z     vdW  Elec       q    Type
REMARK                         _______ _______ _______ _____ _____    ______ ____
ROOT
ATOM      1  O   HOH     1      22.559  20.563  10.314  0.00  0.00    +0.000 OA
ENDROOT
TORSDOF 0
REMARK  Name = ../refined-set-2016/1hn4/1hn4_pocket.pdb
REMARK  322 active torsions:
REMARK  status: ('A' for Active; 'I' for Inactive)
REMARK    1  A    between atoms: _1  and  _5
REMARK    2  A    between atoms: _5  and  _6
REMARK    3  A    between atoms: _8  and  _10
REMARK    4  A    between atoms: _10  and  _11
REMARK    5  A    between atoms: _10  and  _13
REMARK    6  A    between atoms: _13  and  _14
REMARK    7  A    between atoms: _17  and  _19
REMARK    8  A    between atoms: _19  and  _20
REMARK    9  A    between atoms: _19  and  _22
REMARK   10  A    between atoms: _22  and  _23
REMARK   11  A    between atoms: _25  and  _27
REMARK   12  A    between atoms: _27  and  _28
REMARK   13  A    between atoms: _27  and  _30
REMARK   14  A    between atoms: _30  and  _31
REMARK   15  A    between atoms: _33  and  _35
REMARK   16  A    between atoms: _35  and  _36
REMARK   17  A    between atoms: _35  and  _38
REMARK   18  A    between atoms: _38  and  _39
REMARK   19  A    between atoms: _39  and  _40
REMARK   20  A    between atoms: _40  and  _41
REMARK   21  A    between atoms: _50  and  _52
REMARK   22  A    between atoms: _52  and  _53
REMARK   23  A    between atoms: _56  and  _58
REMARK   24  A    between atoms: _58  and  _59
REMARK   25  A    between atoms: _58  and  _61
REMARK   26  A    between atoms: _61  and  _62
REMARK   27  A    between atoms: _65  and  _67
REMARK   28  A    between atoms: _67  and  _68
REMARK   29  A    between atoms: _67  and  _70
REMARK   30  A    between atoms: _70  and  _71
REMARK   31  A    between atoms: _81  and  _83
REMARK   32  A    between atoms: _83  and  _84
REMARK   33  A    between atoms: _83  and  _86
REMARK   34  A    between atoms: _86  and  _87
REMARK   35  A    between atoms: _87  and  _88
REMARK   36  A    between atoms: _93  and  _95
REMARK   37  A    between atoms: _95  and  _96
REMARK   38  A    between atoms: _95  and  _98
REMARK   39  A    between atoms: _98  and  _99
REMARK   40  A    between atoms: _105  and  _107
REMARK   41  A    between atoms: _107  and  _108
REMARK   42  A    between atoms: _107  and  _110
REMARK   43  A    between atoms: _110  and  _111
REMARK   44  A    between atoms: _111  and  _112
REMARK   45  A    between atoms: _112  and  _113
REMARK   46  A    between atoms: _122  and  _124
REMARK   47  A    between atoms: _124  and  _125
REMARK   48  A    between atoms: _124  and  _127
REMARK   49  A    between atoms: _127  and  _128
REMARK   50  A    between atoms: _130  and  _132
REMARK   51  A    between atoms: _132  and  _133
REMARK   52  A    between atoms: _132  and  _135
REMARK   53  A    between atoms: _135  and  _136
REMARK   54  A    between atoms: _136  and  _137
REMARK   55  A    between atoms: _139  and  _141
REMARK   56  A    between atoms: _141  and  _142
REMARK   57  A    between atoms: _141  and  _144
REMARK   58  A    between atoms: _144  and  _145
REMARK   59  A    between atoms: _148  and  _150
REMARK   60  A    between atoms: _150  and  _151
REMARK   61  A    between atoms: _150  and  _153
REMARK   62  A    between atoms: _153  and  _154
REMARK   63  A    between atoms: _154  and  _155
REMARK   64  A    between atoms: _155  and  _156
REMARK   65  A    between atoms: _156  and  _157
REMARK   66  A    between atoms: _161  and  _163
REMARK   67  A    between atoms: _163  and  _164
REMARK   68  A    between atoms: _163  and  _166
REMARK   69  A    between atoms: _166  and  _167
REMARK   70  A    between atoms: _173  and  _174
REMARK   71  A    between atoms: _179  and  _181
REMARK   72  A    between atoms: _181  and  _182
REMARK   73  A    between atoms: _181  and  _184
REMARK   74  A    between atoms: _184  and  _185
REMARK   75  A    between atoms: _188  and  _190
REMARK   76  A    between atoms: _190  and  _191
REMARK   77  A    between atoms: _190  and  _193
REMARK   78  A    between atoms: _193  and  _194
REMARK   79  A    between atoms: _194  and  _195
REMARK   80  A    between atoms: _197  and  _199
REMARK   81  A    between atoms: _199  and  _200
REMARK   82  A    between atoms: _199  and  _202
REMARK   83  A    between atoms: _202  and  _203
REMARK   84  A    between atoms: _206  and  _208
REMARK   85  A    between atoms: _208  and  _209
REMARK   86  A    between atoms: _208  and  _211
REMARK   87  A    between atoms: _211  and  _212
REMARK   88  A    between atoms: _218  and  _220
REMARK   89  A    between atoms: _220  and  _221
REMARK   90  A    between atoms: _220  and  _223
REMARK   91  A    between atoms: _223  and  _224
REMARK   92  A    between atoms: _229  and  _231
REMARK   93  A    between atoms: _231  and  _232
REMARK   94  A    between atoms: _231  and  _234
REMARK   95  A    between atoms: _234  and  _235
REMARK   96  A    between atoms: _240  and  _242
REMARK   97  A    between atoms: _242  and  _243
REMARK   98  A    between atoms: _242  and  _245
REMARK   99  A    between atoms: _245  and  _246
REMARK  100  A    between atoms: _251  and  _252
REMARK  101  A    between atoms: _254  and  _256
REMARK  102  A    between atoms: _256  and  _257
REMARK  103  A    between atoms: _256  and  _259
REMARK  104  A    between atoms: _261  and  _263
REMARK  105  A    between atoms: _263  and  _264
REMARK  106  A    between atoms: _263  and  _266
REMARK  107  A    between atoms: _266  and  _267
REMARK  108  A    between atoms: _272  and  _273
REMARK  109  A    between atoms: _277  and  _280
REMARK  110  A    between atoms: _280  and  _281
REMARK  111  A    between atoms: _281  and  _354
REMARK  112  A    between atoms: _285  and  _287
REMARK  113  A    between atoms: _287  and  _289
REMARK  114  A    between atoms: _289  and  _290
REMARK  115  A    between atoms: _289  and  _292
REMARK  116  A    between atoms: _292  and  _293
REMARK  117  A    between atoms: _296  and  _298
REMARK  118  A    between atoms: _298  and  _299
REMARK  119  A    between atoms: _301  and  _303
REMARK  120  A    between atoms: _303  and  _304
REMARK  121  A    between atoms: _306  and  _308
REMARK  122  A    between atoms: _308  and  _309
REMARK  123  A    between atoms: _308  and  _311
REMARK  124  A    between atoms: _311  and  _312
REMARK  125  A    between atoms: _315  and  _317
REMARK  126  A    between atoms: _317  and  _318
REMARK  127  A    between atoms: _317  and  _320
REMARK  128  A    between atoms: _320  and  _321
REMARK  129  A    between atoms: _324  and  _326
REMARK  130  A    between atoms: _326  and  _327
REMARK  131  A    between atoms: _326  and  _329
REMARK  132  A    between atoms: _329  and  _330
REMARK  133  A    between atoms: _330  and  _331
REMARK  134  A    between atoms: _331  and  _332
REMARK  135  A    between atoms: _341  and  _343
REMARK  136  A    between atoms: _343  and  _344
REMARK  137  A    between atoms: _343  and  _346
REMARK  138  A    between atoms: _348  and  _350
REMARK  139  A    between atoms: _350  and  _351
REMARK  140  A    between atoms: _350  and  _353
REMARK  141  A    between atoms: _353  and  _354
REMARK  142  A    between atoms: _355  and  _357
REMARK  143  A    between atoms: _357  and  _358
REMARK  144  A    between atoms: _357  and  _360
REMARK  145  A    between atoms: _360  and  _361
REMARK  146  A    between atoms: _361  and  _362
REMARK  147  A    between atoms: _365  and  _367
REMARK  148  A    between atoms: _367  and  _368
REMARK  149  A    between atoms: _367  and  _370
REMARK  150  A    between atoms: _370  and  _371
REMARK  151  A    between atoms: _374  and  _376
REMARK  152  A    between atoms: _376  and  _377
REMARK  153  A    between atoms: _376  and  _379
REMARK  154  A    between atoms: _379  and  _380
REMARK  155  A    between atoms: _385  and  _387
REMARK  156  A    between atoms: _387  and  _388
REMARK  157  A    between atoms: _387  and  _390
REMARK  158  A    between atoms: _390  and  _391
REMARK  159  A    between atoms: _394  and  _396
REMARK  160  A    between atoms: _396  and  _397
REMARK  161  A    between atoms: _396  and  _399
REMARK  162  A    between atoms: _399  and  _400
REMARK  163  A    between atoms: _405  and  _407
REMARK  164  A    between atoms: _407  and  _408
REMARK  165  A    between atoms: _407  and  _410
REMARK  166  A    between atoms: _410  and  _411
REMARK  167  A    between atoms: _411  and  _480
REMARK  168  A    between atoms: _412  and  _414
REMARK  169  A    between atoms: _414  and  _415
REMARK  170  A    between atoms: _414  and  _417
REMARK  171  A    between atoms: _417  and  _418
REMARK  172  A    between atoms: _423  and  _424
REMARK  173  A    between atoms: _426  and  _428
REMARK  174  A    between atoms: _428  and  _429
REMARK  175  A    between atoms: _428  and  _431
REMARK  176  A    between atoms: _431  and  _432
REMARK  177  A    between atoms: _432  and  _433
REMARK  178  A    between atoms: _433  and  _434
REMARK  179  A    between atoms: _443  and  _445
REMARK  180  A    between atoms: _445  and  _446
REMARK  181  A    between atoms: _445  and  _448
REMARK  182  A    between atoms: _448  and  _449
REMARK  183  A    between atoms: _452  and  _454
REMARK  184  A    between atoms: _454  and  _455
REMARK  185  A    between atoms: _454  and  _457
REMARK  186  A    between atoms: _457  and  _458
REMARK  187  A    between atoms: _458  and  _459
REMARK  188  A    between atoms: _459  and  _460
REMARK  189  A    between atoms: _460  and  _461
REMARK  190  A    between atoms: _465  and  _467
REMARK  191  A    between atoms: _467  and  _468
REMARK  192  A    between atoms: _467  and  _470
REMARK  193  A    between atoms: _470  and  _471
REMARK  194  A    between atoms: _474  and  _476
REMARK  195  A    between atoms: _476  and  _477
REMARK  196  A    between atoms: _476  and  _479
REMARK  197  A    between atoms: _479  and  _480
REMARK  198  A    between atoms: _481  and  _483
REMARK  199  A    between atoms: _483  and  _484
REMARK  200  A    between atoms: _483  and  _486
REMARK  201  A    between atoms: _486  and  _487
REMARK  202  A    between atoms: _490  and  _492
REMARK  203  A    between atoms: _492  and  _493
REMARK  204  A    between atoms: _496  and  _498
REMARK  205  A    between atoms: _498  and  _499
REMARK  206  A    between atoms: _502  and  _504
REMARK  207  A    between atoms: _504  and  _505
REMARK  208  A    between atoms: _504  and  _507
REMARK  209  A    between atoms: _507  and  _508
REMARK  210  A    between atoms: _514  and  _516
REMARK  211  A    between atoms: _516  and  _517
REMARK  212  A    between atoms: _516  and  _519
REMARK  213  A    between atoms: _519  and  _520
REMARK  214  A    between atoms: _522  and  _524
REMARK  215  A    between atoms: _524  and  _525
REMARK  216  A    between atoms: _524  and  _527
REMARK  217  A    between atoms: _527  and  _528
REMARK  218  A    between atoms: _530  and  _532
REMARK  219  A    between atoms: _532  and  _533
REMARK  220  A    between atoms: _532  and  _535
REMARK  221  A    between atoms: _535  and  _536
REMARK  222  A    between atoms: _536  and  _537
REMARK  223  A    between atoms: _537  and  _538
REMARK  224  A    between atoms: _547  and  _549
REMARK  225  A    between atoms: _549  and  _550
REMARK  226  A    between atoms: _553  and  _555
REMARK  227  A    between atoms: _555  and  _556
REMARK  228  A    between atoms: _555  and  _558
REMARK  229  A    between atoms: _558  and  _559
REMARK  230  A    between atoms: _562  and  _564
REMARK  231  A    between atoms: _564  and  _565
REMARK  232  A    between atoms: _564  and  _567
REMARK  233  A    between atoms: _567  and  _568
REMARK  234  A    between atoms: _578  and  _580
REMARK  235  A    between atoms: _580  and  _581
REMARK  236  A    between atoms: _580  and  _583
REMARK  237  A    between atoms: _583  and  _584
REMARK  238  A    between atoms: _584  and  _585
REMARK  239  A    between atoms: _590  and  _592
REMARK  240  A    between atoms: _592  and  _593
REMARK  241  A    between atoms: _592  and  _595
REMARK  242  A    between atoms: _595  and  _596
REMARK  243  A    between atoms: _602  and  _604
REMARK  244  A    between atoms: _604  and  _605
REMARK  245  A    between atoms: _604  and  _607
REMARK  246  A    between atoms: _607  and  _608
REMARK  247  A    between atoms: _608  and  _609
REMARK  248  A    between atoms: _609  and  _610
REMARK  249  A    between atoms: _619  and  _621
REMARK  250  A    between atoms: _621  and  _622
REMARK  251  A    between atoms: _621  and  _624
REMARK  252  A    between atoms: _624  and  _625
REMARK  253  A    between atoms: _627  and  _629
REMARK  254  A    between atoms: _629  and  _630
REMARK  255  A    between atoms: _629  and  _632
REMARK  256  A    between atoms: _632  and  _633
REMARK  257  A    between atoms: _633  and  _634
REMARK  258  A    between atoms: _636  and  _638
REMARK  259  A    between atoms: _638  and  _639
REMARK  260  A    between atoms: _638  and  _641
REMARK  261  A    between atoms: _641  and  _642
REMARK  262  A    between atoms: _645  and  _647
REMARK  263  A    between atoms: _647  and  _648
REMARK  264  A    between atoms: _647  and  _650
REMARK  265  A    between atoms: _650  and  _651
REMARK  266  A    between atoms: _651  and  _652
REMARK  267  A    between atoms: _652  and  _653
REMARK  268  A    between atoms: _653  and  _654
REMARK  269  A    between atoms: _658  and  _660
REMARK  270  A    between atoms: _660  and  _661
REMARK  271  A    between atoms: _660  and  _663
REMARK  272  A    between atoms: _663  and  _664
REMARK  273  A    between atoms: _670  and  _671
REMARK  274  A    between atoms: _676  and  _678
REMARK  275  A    between atoms: _678  and  _679
REMARK  276  A    between atoms: _678  and  _681
REMARK  277  A    between atoms: _681  and  _682
REMARK  278  A    between atoms: _685  and  _687
REMARK  279  A    between atoms: _687  and  _688
REMARK  280  A    between atoms: _687  and  _690
REMARK  281  A    between atoms: _690  and  _691
REMARK  282  A    between atoms: _691  and  _692
REMARK  283  A    between atoms: _694  and  _696
REMARK  284  A    between atoms: _696  and  _697
REMARK  285  A    between atoms: _696  and  _699
REMARK  286  A    between atoms: _699  and  _700
REMARK  287  A    between atoms: _703  and  _705
REMARK  288  A    between atoms: _705  and  _706
REMARK  289  A    between atoms: _705  and  _708
REMARK  290  A    between atoms: _708  and  _709
REMARK  291  A    between atoms: _715  and  _717
REMARK  292  A    between atoms: _717  and  _718
REMARK  293  A    between atoms: _717  and  _720
REMARK  294  A    between atoms: _720  and  _721
REMARK  295  A    between atoms: _726  and  _728
REMARK  296  A    between atoms: _728  and  _729
REMARK  297  A    between atoms: _728  and  _731
REMARK  298  A    between atoms: _731  and  _732
REMARK  299  A    between atoms: _737  and  _739
REMARK  300  A    between atoms: _739  and  _740
REMARK  301  A    between atoms: _739  and  _742
REMARK  302  A    between atoms: _742  and  _743
REMARK  303  A    between atoms: _743  and  _755
REMARK  304  A    between atoms: _744  and  _746
REMARK  305  A    between atoms: _746  and  _747
REMARK  306  A    between atoms: _749  and  _751
REMARK  307  A    between atoms: _751  and  _752
REMARK  308  A    between atoms: _751  and  _754
REMARK  309  A    between atoms: _754  and  _755
REMARK  310  A    between atoms: _756  and  _758
REMARK  311  A    between atoms: _758  and  _759
REMARK  312  A    between atoms: _758  and  _761
REMARK  313  A    between atoms: _761  and  _762
REMARK  314  A    between atoms: _767  and  _769
REMARK  315  A    between atoms: _769  and  _770
REMARK  316  A    between atoms: _769  and  _772
REMARK  317  A    between atoms: _772  and  _773
REMARK  318  A    between atoms: _778  and  _779
REMARK  319  A    between atoms: _781  and  _783
REMARK  320  A    between atoms: _783  and  _784
REMARK  321  A    between atoms: _783  and  _786
REMARK  322  A    between atoms: _786  and  _787
REMARK                            x       y       z     vdW  Elec       q    Type
REMARK                         _______ _______ _______ _____ _____    ______ ____
ROOT
ATOM      1  O   HOH     1      26.407  20.054  20.872  0.00  0.00    +0.000 OA
ENDROOT
TORSDOF 0
REMARK  Name = ../refined-set-2016/1hn4/1hn4_pocket.pdb
REMARK  322 active torsions:
REMARK  status: ('A' for Active; 'I' for Inactive)
REMARK    1  A    between atoms: _1  and  _5
REMARK    2  A    between atoms: _5  and  _6
REMARK    3  A    between atoms: _8  and  _10
REMARK    4  A    between atoms: _10  and  _11
REMARK    5  A    between atoms: _10  and  _13
REMARK    6  A    between atoms: _13  and  _14
REMARK    7  A    between atoms: _17  and  _19
REMARK    8  A    between atoms: _19  and  _20
REMARK    9  A    between atoms: _19  and  _22
REMARK   10  A    between atoms: _22  and  _23
REMARK   11  A    between atoms: _25  and  _27
REMARK   12  A    between atoms: _27  and  _28
REMARK   13  A    between atoms: _27  and  _30
REMARK   14  A    between atoms: _30  and  _31
REMARK   15  A    between atoms: _33  and  _35
REMARK   16  A    between atoms: _35  and  _36
REMARK   17  A    between atoms: _35  and  _38
REMARK   18  A    between atoms: _38  and  _39
REMARK   19  A    between atoms: _39  and  _40
REMARK   20  A    between atoms: _40  and  _41
REMARK   21  A    between atoms: _50  and  _52
REMARK   22  A    between atoms: _52  and  _53
REMARK   23  A    between atoms: _56  and  _58
REMARK   24  A    between atoms: _58  and  _59
REMARK   25  A    between atoms: _58  and  _61
REMARK   26  A    between atoms: _61  and  _62
REMARK   27  A    between atoms: _65  and  _67
REMARK   28  A    between atoms: _67  and  _68
REMARK   29  A    between atoms: _67  and  _70
REMARK   30  A    between atoms: _70  and  _71
REMARK   31  A    between atoms: _81  and  _83
REMARK   32  A    between atoms: _83  and  _84
REMARK   33  A    between atoms: _83  and  _86
REMARK   34  A    between atoms: _86  and  _87
REMARK   35  A    between atoms: _87  and  _88
REMARK   36  A    between atoms: _93  and  _95
REMARK   37  A    between atoms: _95  and  _96
REMARK   38  A    between atoms: _95  and  _98
REMARK   39  A    between atoms: _98  and  _99
REMARK   40  A    between atoms: _105  and  _107
REMARK   41  A    between atoms: _107  and  _108
REMARK   42  A    between atoms: _107  and  _110
REMARK   43  A    between atoms: _110  and  _111
REMARK   44  A    between atoms: _111  and  _112
REMARK   45  A    between atoms: _112  and  _113
REMARK   46  A    between atoms: _122  and  _124
REMARK   47  A    between atoms: _124  and  _125
REMARK   48  A    between atoms: _124  and  _127
REMARK   49  A    between atoms: _127  and  _128
REMARK   50  A    between atoms: _130  and  _132
REMARK   51  A    between atoms: _132  and  _133
REMARK   52  A    between atoms: _132  and  _135
REMARK   53  A    between atoms: _135  and  _136
REMARK   54  A    between atoms: _136  and  _137
REMARK   55  A    between atoms: _139  and  _141
REMARK   56  A    between atoms: _141  and  _142
REMARK   57  A    between atoms: _141  and  _144
REMARK   58  A    between atoms: _144  and  _145
REMARK   59  A    between atoms: _148  and  _150
REMARK   60  A    between atoms: _150  and  _151
REMARK   61  A    between atoms: _150  and  _153
REMARK   62  A    between atoms: _153  and  _154
REMARK   63  A    between atoms: _154  and  _155
REMARK   64  A    between atoms: _155  and  _156
REMARK   65  A    between atoms: _156  and  _157
REMARK   66  A    between atoms: _161  and  _163
REMARK   67  A    between atoms: _163  and  _164
REMARK   68  A    between atoms: _163  and  _166
REMARK   69  A    between atoms: _166  and  _167
REMARK   70  A    between atoms: _173  and  _174
REMARK   71  A    between atoms: _179  and  _181
REMARK   72  A    between atoms: _181  and  _182
REMARK   73  A    between atoms: _181  and  _184
REMARK   74  A    between atoms: _184  and  _185
REMARK   75  A    between atoms: _188  and  _190
REMARK   76  A    between atoms: _190  and  _191
REMARK   77  A    between atoms: _190  and  _193
REMARK   78  A    between atoms: _193  and  _194
REMARK   79  A    between atoms: _194  and  _195
REMARK   80  A    between atoms: _197  and  _199
REMARK   81  A    between atoms: _199  and  _200
REMARK   82  A    between atoms: _199  and  _202
REMARK   83  A    between atoms: _202  and  _203
REMARK   84  A    between atoms: _206  and  _208
REMARK   85  A    between atoms: _208  and  _209
REMARK   86  A    between atoms: _208  and  _211
REMARK   87  A    between atoms: _211  and  _212
REMARK   88  A    between atoms: _218  and  _220
REMARK   89  A    between atoms: _220  and  _221
REMARK   90  A    between atoms: _220  and  _223
REMARK   91  A    between atoms: _223  and  _224
REMARK   92  A    between atoms: _229  and  _231
REMARK   93  A    between atoms: _231  and  _232
REMARK   94  A    between atoms: _231  and  _234
REMARK   95  A    between atoms: _234  and  _235
REMARK   96  A    between atoms: _240  and  _242
REMARK   97  A    between atoms: _242  and  _243
REMARK   98  A    between atoms: _242  and  _245
REMARK   99  A    between atoms: _245  and  _246
REMARK  100  A    between atoms: _251  and  _252
REMARK  101  A    between atoms: _254  and  _256
REMARK  102  A    between atoms: _256  and  _257
REMARK  103  A    between atoms: _256  and  _259
REMARK  104  A    between atoms: _261  and  _263
REMARK  105  A    between atoms: _263  and  _264
REMARK  106  A    between atoms: _263  and  _266
REMARK  107  A    between atoms: _266  and  _267
REMARK  108  A    between atoms: _272  and  _273
REMARK  109  A    between atoms: _277  and  _280
REMARK  110  A    between atoms: _280  and  _281
REMARK  111  A    between atoms: _281  and  _354
REMARK  112  A    between atoms: _285  and  _287
REMARK  113  A    between atoms: _287  and  _289
REMARK  114  A    between atoms: _289  and  _290
REMARK  115  A    between atoms: _289  and  _292
REMARK  116  A    between atoms: _292  and  _293
REMARK  117  A    between atoms: _296  and  _298
REMARK  118  A    between atoms: _298  and  _299
REMARK  119  A    between atoms: _301  and  _303
REMARK  120  A    between atoms: _303  and  _304
REMARK  121  A    between atoms: _306  and  _308
REMARK  122  A    between atoms: _308  and  _309
REMARK  123  A    between atoms: _308  and  _311
REMARK  124  A    between atoms: _311  and  _312
REMARK  125  A    between atoms: _315  and  _317
REMARK  126  A    between atoms: _317  and  _318
REMARK  127  A    between atoms: _317  and  _320
REMARK  128  A    between atoms: _320  and  _321
REMARK  129  A    between atoms: _324  and  _326
REMARK  130  A    between atoms: _326  and  _327
REMARK  131  A    between atoms: _326  and  _329
REMARK  132  A    between atoms: _329  and  _330
REMARK  133  A    between atoms: _330  and  _331
REMARK  134  A    between atoms: _331  and  _332
REMARK  135  A    between atoms: _341  and  _343
REMARK  136  A    between atoms: _343  and  _344
REMARK  137  A    between atoms: _343  and  _346
REMARK  138  A    between atoms: _348  and  _350
REMARK  139  A    between atoms: _350  and  _351
REMARK  140  A    between atoms: _350  and  _353
REMARK  141  A    between atoms: _353  and  _354
REMARK  142  A    between atoms: _355  and  _357
REMARK  143  A    between atoms: _357  and  _358
REMARK  144  A    between atoms: _357  and  _360
REMARK  145  A    between atoms: _360  and  _361
REMARK  146  A    between atoms: _361  and  _362
REMARK  147  A    between atoms: _365  and  _367
REMARK  148  A    between atoms: _367  and  _368
REMARK  149  A    between atoms: _367  and  _370
REMARK  150  A    between atoms: _370  and  _371
REMARK  151  A    between atoms: _374  and  _376
REMARK  152  A    between atoms: _376  and  _377
REMARK  153  A    between atoms: _376  and  _379
REMARK  154  A    between atoms: _379  and  _380
REMARK  155  A    between atoms: _385  and  _387
REMARK  156  A    between atoms: _387  and  _388
REMARK  157  A    between atoms: _387  and  _390
REMARK  158  A    between atoms: _390  and  _391
REMARK  159  A    between atoms: _394  and  _396
REMARK  160  A    between atoms: _396  and  _397
REMARK  161  A    between atoms: _396  and  _399
REMARK  162  A    between atoms: _399  and  _400
REMARK  163  A    between atoms: _405  and  _407
REMARK  164  A    between atoms: _407  and  _408
REMARK  165  A    between atoms: _407  and  _410
REMARK  166  A    between atoms: _410  and  _411
REMARK  167  A    between atoms: _411  and  _480
REMARK  168  A    between atoms: _412  and  _414
REMARK  169  A    between atoms: _414  and  _415
REMARK  170  A    between atoms: _414  and  _417
REMARK  171  A    between atoms: _417  and  _418
REMARK  172  A    between atoms: _423  and  _424
REMARK  173  A    between atoms: _426  and  _428
REMARK  174  A    between atoms: _428  and  _429
REMARK  175  A    between atoms: _428  and  _431
REMARK  176  A    between atoms: _431  and  _432
REMARK  177  A    between atoms: _432  and  _433
REMARK  178  A    between atoms: _433  and  _434
REMARK  179  A    between atoms: _443  and  _445
REMARK  180  A    between atoms: _445  and  _446
REMARK  181  A    between atoms: _445  and  _448
REMARK  182  A    between atoms: _448  and  _449
REMARK  183  A    between atoms: _452  and  _454
REMARK  184  A    between atoms: _454  and  _455
REMARK  185  A    between atoms: _454  and  _457
REMARK  186  A    between atoms: _457  and  _458
REMARK  187  A    between atoms: _458  and  _459
REMARK  188  A    between atoms: _459  and  _460
REMARK  189  A    between atoms: _460  and  _461
REMARK  190  A    between atoms: _465  and  _467
REMARK  191  A    between atoms: _467  and  _468
REMARK  192  A    between atoms: _467  and  _470
REMARK  193  A    between atoms: _470  and  _471
REMARK  194  A    between atoms: _474  and  _476
REMARK  195  A    between atoms: _476  and  _477
REMARK  196  A    between atoms: _476  and  _479
REMARK  197  A    between atoms: _479  and  _480
REMARK  198  A    between atoms: _481  and  _483
REMARK  199  A    between atoms: _483  and  _484
REMARK  200  A    between atoms: _483  and  _486
REMARK  201  A    between atoms: _486  and  _487
REMARK  202  A    between atoms: _490  and  _492
REMARK  203  A    between atoms: _492  and  _493
REMARK  204  A    between atoms: _496  and  _498
REMARK  205  A    between atoms: _498  and  _499
REMARK  206  A    between atoms: _502  and  _504
REMARK  207  A    between atoms: _504  and  _505
REMARK  208  A    between atoms: _504  and  _507
REMARK  209  A    between atoms: _507  and  _508
REMARK  210  A    between atoms: _514  and  _516
REMARK  211  A    between atoms: _516  and  _517
REMARK  212  A    between atoms: _516  and  _519
REMARK  213  A    between atoms: _519  and  _520
REMARK  214  A    between atoms: _522  and  _524
REMARK  215  A    between atoms: _524  and  _525
REMARK  216  A    between atoms: _524  and  _527
REMARK  217  A    between atoms: _527  and  _528
REMARK  218  A    between atoms: _530  and  _532
REMARK  219  A    between atoms: _532  and  _533
REMARK  220  A    between atoms: _532  and  _535
REMARK  221  A    between atoms: _535  and  _536
REMARK  222  A    between atoms: _536  and  _537
REMARK  223  A    between atoms: _537  and  _538
REMARK  224  A    between atoms: _547  and  _549
REMARK  225  A    between atoms: _549  and  _550
REMARK  226  A    between atoms: _553  and  _555
REMARK  227  A    between atoms: _555  and  _556
REMARK  228  A    between atoms: _555  and  _558
REMARK  229  A    between atoms: _558  and  _559
REMARK  230  A    between atoms: _562  and  _564
REMARK  231  A    between atoms: _564  and  _565
REMARK  232  A    between atoms: _564  and  _567
REMARK  233  A    between atoms: _567  and  _568
REMARK  234  A    between atoms: _578  and  _580
REMARK  235  A    between atoms: _580  and  _581
REMARK  236  A    between atoms: _580  and  _583
REMARK  237  A    between atoms: _583  and  _584
REMARK  238  A    between atoms: _584  and  _585
REMARK  239  A    between atoms: _590  and  _592
REMARK  240  A    between atoms: _592  and  _593
REMARK  241  A    between atoms: _592  and  _595
REMARK  242  A    between atoms: _595  and  _596
REMARK  243  A    between atoms: _602  and  _604
REMARK  244  A    between atoms: _604  and  _605
REMARK  245  A    between atoms: _604  and  _607
REMARK  246  A    between atoms: _607  and  _608
REMARK  247  A    between atoms: _608  and  _609
REMARK  248  A    between atoms: _609  and  _610
REMARK  249  A    between atoms: _619  and  _621
REMARK  250  A    between atoms: _621  and  _622
REMARK  251  A    between atoms: _621  and  _624
REMARK  252  A    between atoms: _624  and  _625
REMARK  253  A    between atoms: _627  and  _629
REMARK  254  A    between atoms: _629  and  _630
REMARK  255  A    between atoms: _629  and  _632
REMARK  256  A    between atoms: _632  and  _633
REMARK  257  A    between atoms: _633  and  _634
REMARK  258  A    between atoms: _636  and  _638
REMARK  259  A    between atoms: _638  and  _639
REMARK  260  A    between atoms: _638  and  _641
REMARK  261  A    between atoms: _641  and  _642
REMARK  262  A    between atoms: _645  and  _647
REMARK  263  A    between atoms: _647  and  _648
REMARK  264  A    between atoms: _647  and  _650
REMARK  265  A    between atoms: _650  and  _651
REMARK  266  A    between atoms: _651  and  _652
REMARK  267  A    between atoms: _652  and  _653
REMARK  268  A    between atoms: _653  and  _654
REMARK  269  A    between atoms: _658  and  _660
REMARK  270  A    between atoms: _660  and  _661
REMARK  271  A    between atoms: _660  and  _663
REMARK  272  A    between atoms: _663  and  _664
REMARK  273  A    between atoms: _670  and  _671
REMARK  274  A    between atoms: _676  and  _678
REMARK  275  A    between atoms: _678  and  _679
REMARK  276  A    between atoms: _678  and  _681
REMARK  277  A    between atoms: _681  and  _682
REMARK  278  A    between atoms: _685  and  _687
REMARK  279  A    between atoms: _687  and  _688
REMARK  280  A    between atoms: _687  and  _690
REMARK  281  A    between atoms: _690  and  _691
REMARK  282  A    between atoms: _691  and  _692
REMARK  283  A    between atoms: _694  and  _696
REMARK  284  A    between atoms: _696  and  _697
REMARK  285  A    between atoms: _696  and  _699
REMARK  286  A    between atoms: _699  and  _700
REMARK  287  A    between atoms: _703  and  _705
REMARK  288  A    between atoms: _705  and  _706
REMARK  289  A    between atoms: _705  and  _708
REMARK  290  A    between atoms: _708  and  _709
REMARK  291  A    between atoms: _715  and  _717
REMARK  292  A    between atoms: _717  and  _718
REMARK  293  A    between atoms: _717  and  _720
REMARK  294  A    between atoms: _720  and  _721
REMARK  295  A    between atoms: _726  and  _728
REMARK  296  A    between atoms: _728  and  _729
REMARK  297  A    between atoms: _728  and  _731
REMARK  298  A    between atoms: _731  and  _732
REMARK  299  A    between atoms: _737  and  _739
REMARK  300  A    between atoms: _739  and  _740
REMARK  301  A    between atoms: _739  and  _742
REMARK  302  A    between atoms: _742  and  _743
REMARK  303  A    between atoms: _743  and  _755
REMARK  304  A    between atoms: _744  and  _746
REMARK  305  A    between atoms: _746  and  _747
REMARK  306  A    between atoms: _749  and  _751
REMARK  307  A    between atoms: _751  and  _752
REMARK  308  A    between atoms: _751  and  _754
REMARK  309  A    between atoms: _754  and  _755
REMARK  310  A    between atoms: _756  and  _758
REMARK  311  A    between atoms: _758  and  _759
REMARK  312  A    between atoms: _758  and  _761
REMARK  313  A    between atoms: _761  and  _762
REMARK  314  A    between atoms: _767  and  _769
REMARK  315  A    between atoms: _769  and  _770
REMARK  316  A    between atoms: _769  and  _772
REMARK  317  A    between atoms: _772  and  _773
REMARK  318  A    between atoms: _778  and  _779
REMARK  319  A    between atoms: _781  and  _783
REMARK  320  A    between atoms: _783  and  _784
REMARK  321  A    between atoms: _783  and  _786
REMARK  322  A    between atoms: _786  and  _787
REMARK                            x       y       z     vdW  Elec       q    Type
REMARK                         _______ _______ _______ _____ _____    ______ ____
ROOT
ATOM      1  O   HOH     1      22.171  19.066  27.418  0.00  0.00    +0.000 OA
ENDROOT
TORSDOF 0
REMARK  Name = ../refined-set-2016/1hn4/1hn4_pocket.pdb
REMARK  322 active torsions:
REMARK  status: ('A' for Active; 'I' for Inactive)
REMARK    1  A    between atoms: _1  and  _5
REMARK    2  A    between atoms: _5  and  _6
REMARK    3  A    between atoms: _8  and  _10
REMARK    4  A    between atoms: _10  and  _11
REMARK    5  A    between atoms: _10  and  _13
REMARK    6  A    between atoms: _13  and  _14
REMARK    7  A    between atoms: _17  and  _19
REMARK    8  A    between atoms: _19  and  _20
REMARK    9  A    between atoms: _19  and  _22
REMARK   10  A    between atoms: _22  and  _23
REMARK   11  A    between atoms: _25  and  _27
REMARK   12  A    between atoms: _27  and  _28
REMARK   13  A    between atoms: _27  and  _30
REMARK   14  A    between atoms: _30  and  _31
REMARK   15  A    between atoms: _33  and  _35
REMARK   16  A    between atoms: _35  and  _36
REMARK   17  A    between atoms: _35  and  _38
REMARK   18  A    between atoms: _38  and  _39
REMARK   19  A    between atoms: _39  and  _40
REMARK   20  A    between atoms: _40  and  _41
REMARK   21  A    between atoms: _50  and  _52
REMARK   22  A    between atoms: _52  and  _53
REMARK   23  A    between atoms: _56  and  _58
REMARK   24  A    between atoms: _58  and  _59
REMARK   25  A    between atoms: _58  and  _61
REMARK   26  A    between atoms: _61  and  _62
REMARK   27  A    between atoms: _65  and  _67
REMARK   28  A    between atoms: _67  and  _68
REMARK   29  A    between atoms: _67  and  _70
REMARK   30  A    between atoms: _70  and  _71
REMARK   31  A    between atoms: _81  and  _83
REMARK   32  A    between atoms: _83  and  _84
REMARK   33  A    between atoms: _83  and  _86
REMARK   34  A    between atoms: _86  and  _87
REMARK   35  A    between atoms: _87  and  _88
REMARK   36  A    between atoms: _93  and  _95
REMARK   37  A    between atoms: _95  and  _96
REMARK   38  A    between atoms: _95  and  _98
REMARK   39  A    between atoms: _98  and  _99
REMARK   40  A    between atoms: _105  and  _107
REMARK   41  A    between atoms: _107  and  _108
REMARK   42  A    between atoms: _107  and  _110
REMARK   43  A    between atoms: _110  and  _111
REMARK   44  A    between atoms: _111  and  _112
REMARK   45  A    between atoms: _112  and  _113
REMARK   46  A    between atoms: _122  and  _124
REMARK   47  A    between atoms: _124  and  _125
REMARK   48  A    between atoms: _124  and  _127
REMARK   49  A    between atoms: _127  and  _128
REMARK   50  A    between atoms: _130  and  _132
REMARK   51  A    between atoms: _132  and  _133
REMARK   52  A    between atoms: _132  and  _135
REMARK   53  A    between atoms: _135  and  _136
REMARK   54  A    between atoms: _136  and  _137
REMARK   55  A    between atoms: _139  and  _141
REMARK   56  A    between atoms: _141  and  _142
REMARK   57  A    between atoms: _141  and  _144
REMARK   58  A    between atoms: _144  and  _145
REMARK   59  A    between atoms: _148  and  _150
REMARK   60  A    between atoms: _150  and  _151
REMARK   61  A    between atoms: _150  and  _153
REMARK   62  A    between atoms: _153  and  _154
REMARK   63  A    between atoms: _154  and  _155
REMARK   64  A    between atoms: _155  and  _156
REMARK   65  A    between atoms: _156  and  _157
REMARK   66  A    between atoms: _161  and  _163
REMARK   67  A    between atoms: _163  and  _164
REMARK   68  A    between atoms: _163  and  _166
REMARK   69  A    between atoms: _166  and  _167
REMARK   70  A    between atoms: _173  and  _174
REMARK   71  A    between atoms: _179  and  _181
REMARK   72  A    between atoms: _181  and  _182
REMARK   73  A    between atoms: _181  and  _184
REMARK   74  A    between atoms: _184  and  _185
REMARK   75  A    between atoms: _188  and  _190
REMARK   76  A    between atoms: _190  and  _191
REMARK   77  A    between atoms: _190  and  _193
REMARK   78  A    between atoms: _193  and  _194
REMARK   79  A    between atoms: _194  and  _195
REMARK   80  A    between atoms: _197  and  _199
REMARK   81  A    between atoms: _199  and  _200
REMARK   82  A    between atoms: _199  and  _202
REMARK   83  A    between atoms: _202  and  _203
REMARK   84  A    between atoms: _206  and  _208
REMARK   85  A    between atoms: _208  and  _209
REMARK   86  A    between atoms: _208  and  _211
REMARK   87  A    between atoms: _211  and  _212
REMARK   88  A    between atoms: _218  and  _220
REMARK   89  A    between atoms: _220  and  _221
REMARK   90  A    between atoms: _220  and  _223
REMARK   91  A    between atoms: _223  and  _224
REMARK   92  A    between atoms: _229  and  _231
REMARK   93  A    between atoms: _231  and  _232
REMARK   94  A    between atoms: _231  and  _234
REMARK   95  A    between atoms: _234  and  _235
REMARK   96  A    between atoms: _240  and  _242
REMARK   97  A    between atoms: _242  and  _243
REMARK   98  A    between atoms: _242  and  _245
REMARK   99  A    between atoms: _245  and  _246
REMARK  100  A    between atoms: _251  and  _252
REMARK  101  A    between atoms: _254  and  _256
REMARK  102  A    between atoms: _256  and  _257
REMARK  103  A    between atoms: _256  and  _259
REMARK  104  A    between atoms: _261  and  _263
REMARK  105  A    between atoms: _263  and  _264
REMARK  106  A    between atoms: _263  and  _266
REMARK  107  A    between atoms: _266  and  _267
REMARK  108  A    between atoms: _272  and  _273
REMARK  109  A    between atoms: _277  and  _280
REMARK  110  A    between atoms: _280  and  _281
REMARK  111  A    between atoms: _281  and  _354
REMARK  112  A    between atoms: _285  and  _287
REMARK  113  A    between atoms: _287  and  _289
REMARK  114  A    between atoms: _289  and  _290
REMARK  115  A    between atoms: _289  and  _292
REMARK  116  A    between atoms: _292  and  _293
REMARK  117  A    between atoms: _296  and  _298
REMARK  118  A    between atoms: _298  and  _299
REMARK  119  A    between atoms: _301  and  _303
REMARK  120  A    between atoms: _303  and  _304
REMARK  121  A    between atoms: _306  and  _308
REMARK  122  A    between atoms: _308  and  _309
REMARK  123  A    between atoms: _308  and  _311
REMARK  124  A    between atoms: _311  and  _312
REMARK  125  A    between atoms: _315  and  _317
REMARK  126  A    between atoms: _317  and  _318
REMARK  127  A    between atoms: _317  and  _320
REMARK  128  A    between atoms: _320  and  _321
REMARK  129  A    between atoms: _324  and  _326
REMARK  130  A    between atoms: _326  and  _327
REMARK  131  A    between atoms: _326  and  _329
REMARK  132  A    between atoms: _329  and  _330
REMARK  133  A    between atoms: _330  and  _331
REMARK  134  A    between atoms: _331  and  _332
REMARK  135  A    between atoms: _341  and  _343
REMARK  136  A    between atoms: _343  and  _344
REMARK  137  A    between atoms: _343  and  _346
REMARK  138  A    between atoms: _348  and  _350
REMARK  139  A    between atoms: _350  and  _351
REMARK  140  A    between atoms: _350  and  _353
REMARK  141  A    between atoms: _353  and  _354
REMARK  142  A    between atoms: _355  and  _357
REMARK  143  A    between atoms: _357  and  _358
REMARK  144  A    between atoms: _357  and  _360
REMARK  145  A    between atoms: _360  and  _361
REMARK  146  A    between atoms: _361  and  _362
REMARK  147  A    between atoms: _365  and  _367
REMARK  148  A    between atoms: _367  and  _368
REMARK  149  A    between atoms: _367  and  _370
REMARK  150  A    between atoms: _370  and  _371
REMARK  151  A    between atoms: _374  and  _376
REMARK  152  A    between atoms: _376  and  _377
REMARK  153  A    between atoms: _376  and  _379
REMARK  154  A    between atoms: _379  and  _380
REMARK  155  A    between atoms: _385  and  _387
REMARK  156  A    between atoms: _387  and  _388
REMARK  157  A    between atoms: _387  and  _390
REMARK  158  A    between atoms: _390  and  _391
REMARK  159  A    between atoms: _394  and  _396
REMARK  160  A    between atoms: _396  and  _397
REMARK  161  A    between atoms: _396  and  _399
REMARK  162  A    between atoms: _399  and  _400
REMARK  163  A    between atoms: _405  and  _407
REMARK  164  A    between atoms: _407  and  _408
REMARK  165  A    between atoms: _407  and  _410
REMARK  166  A    between atoms: _410  and  _411
REMARK  167  A    between atoms: _411  and  _480
REMARK  168  A    between atoms: _412  and  _414
REMARK  169  A    between atoms: _414  and  _415
REMARK  170  A    between atoms: _414  and  _417
REMARK  171  A    between atoms: _417  and  _418
REMARK  172  A    between atoms: _423  and  _424
REMARK  173  A    between atoms: _426  and  _428
REMARK  174  A    between atoms: _428  and  _429
REMARK  175  A    between atoms: _428  and  _431
REMARK  176  A    between atoms: _431  and  _432
REMARK  177  A    between atoms: _432  and  _433
REMARK  178  A    between atoms: _433  and  _434
REMARK  179  A    between atoms: _443  and  _445
REMARK  180  A    between atoms: _445  and  _446
REMARK  181  A    between atoms: _445  and  _448
REMARK  182  A    between atoms: _448  and  _449
REMARK  183  A    between atoms: _452  and  _454
REMARK  184  A    between atoms: _454  and  _455
REMARK  185  A    between atoms: _454  and  _457
REMARK  186  A    between atoms: _457  and  _458
REMARK  187  A    between atoms: _458  and  _459
REMARK  188  A    between atoms: _459  and  _460
REMARK  189  A    between atoms: _460  and  _461
REMARK  190  A    between atoms: _465  and  _467
REMARK  191  A    between atoms: _467  and  _468
REMARK  192  A    between atoms: _467  and  _470
REMARK  193  A    between atoms: _470  and  _471
REMARK  194  A    between atoms: _474  and  _476
REMARK  195  A    between atoms: _476  and  _477
REMARK  196  A    between atoms: _476  and  _479
REMARK  197  A    between atoms: _479  and  _480
REMARK  198  A    between atoms: _481  and  _483
REMARK  199  A    between atoms: _483  and  _484
REMARK  200  A    between atoms: _483  and  _486
REMARK  201  A    between atoms: _486  and  _487
REMARK  202  A    between atoms: _490  and  _492
REMARK  203  A    between atoms: _492  and  _493
REMARK  204  A    between atoms: _496  and  _498
REMARK  205  A    between atoms: _498  and  _499
REMARK  206  A    between atoms: _502  and  _504
REMARK  207  A    between atoms: _504  and  _505
REMARK  208  A    between atoms: _504  and  _507
REMARK  209  A    between atoms: _507  and  _508
REMARK  210  A    between atoms: _514  and  _516
REMARK  211  A    between atoms: _516  and  _517
REMARK  212  A    between atoms: _516  and  _519
REMARK  213  A    between atoms: _519  and  _520
REMARK  214  A    between atoms: _522  and  _524
REMARK  215  A    between atoms: _524  and  _525
REMARK  216  A    between atoms: _524  and  _527
REMARK  217  A    between atoms: _527  and  _528
REMARK  218  A    between atoms: _530  and  _532
REMARK  219  A    between atoms: _532  and  _533
REMARK  220  A    between atoms: _532  and  _535
REMARK  221  A    between atoms: _535  and  _536
REMARK  222  A    between atoms: _536  and  _537
REMARK  223  A    between atoms: _537  and  _538
REMARK  224  A    between atoms: _547  and  _549
REMARK  225  A    between atoms: _549  and  _550
REMARK  226  A    between atoms: _553  and  _555
REMARK  227  A    between atoms: _555  and  _556
REMARK  228  A    between atoms: _555  and  _558
REMARK  229  A    between atoms: _558  and  _559
REMARK  230  A    between atoms: _562  and  _564
REMARK  231  A    between atoms: _564  and  _565
REMARK  232  A    between atoms: _564  and  _567
REMARK  233  A    between atoms: _567  and  _568
REMARK  234  A    between atoms: _578  and  _580
REMARK  235  A    between atoms: _580  and  _581
REMARK  236  A    between atoms: _580  and  _583
REMARK  237  A    between atoms: _583  and  _584
REMARK  238  A    between atoms: _584  and  _585
REMARK  239  A    between atoms: _590  and  _592
REMARK  240  A    between atoms: _592  and  _593
REMARK  241  A    between atoms: _592  and  _595
REMARK  242  A    between atoms: _595  and  _596
REMARK  243  A    between atoms: _602  and  _604
REMARK  244  A    between atoms: _604  and  _605
REMARK  245  A    between atoms: _604  and  _607
REMARK  246  A    between atoms: _607  and  _608
REMARK  247  A    between atoms: _608  and  _609
REMARK  248  A    between atoms: _609  and  _610
REMARK  249  A    between atoms: _619  and  _621
REMARK  250  A    between atoms: _621  and  _622
REMARK  251  A    between atoms: _621  and  _624
REMARK  252  A    between atoms: _624  and  _625
REMARK  253  A    between atoms: _627  and  _629
REMARK  254  A    between atoms: _629  and  _630
REMARK  255  A    between atoms: _629  and  _632
REMARK  256  A    between atoms: _632  and  _633
REMARK  257  A    between atoms: _633  and  _634
REMARK  258  A    between atoms: _636  and  _638
REMARK  259  A    between atoms: _638  and  _639
REMARK  260  A    between atoms: _638  and  _641
REMARK  261  A    between atoms: _641  and  _642
REMARK  262  A    between atoms: _645  and  _647
REMARK  263  A    between atoms: _647  and  _648
REMARK  264  A    between atoms: _647  and  _650
REMARK  265  A    between atoms: _650  and  _651
REMARK  266  A    between atoms: _651  and  _652
REMARK  267  A    between atoms: _652  and  _653
REMARK  268  A    between atoms: _653  and  _654
REMARK  269  A    between atoms: _658  and  _660
REMARK  270  A    between atoms: _660  and  _661
REMARK  271  A    between atoms: _660  and  _663
REMARK  272  A    between atoms: _663  and  _664
REMARK  273  A    between atoms: _670  and  _671
REMARK  274  A    between atoms: _676  and  _678
REMARK  275  A    between atoms: _678  and  _679
REMARK  276  A    between atoms: _678  and  _681
REMARK  277  A    between atoms: _681  and  _682
REMARK  278  A    between atoms: _685  and  _687
REMARK  279  A    between atoms: _687  and  _688
REMARK  280  A    between atoms: _687  and  _690
REMARK  281  A    between atoms: _690  and  _691
REMARK  282  A    between atoms: _691  and  _692
REMARK  283  A    between atoms: _694  and  _696
REMARK  284  A    between atoms: _696  and  _697
REMARK  285  A    between atoms: _696  and  _699
REMARK  286  A    between atoms: _699  and  _700
REMARK  287  A    between atoms: _703  and  _705
REMARK  288  A    between atoms: _705  and  _706
REMARK  289  A    between atoms: _705  and  _708
REMARK  290  A    between atoms: _708  and  _709
REMARK  291  A    between atoms: _715  and  _717
REMARK  292  A    between atoms: _717  and  _718
REMARK  293  A    between atoms: _717  and  _720
REMARK  294  A    between atoms: _720  and  _721
REMARK  295  A    between atoms: _726  and  _728
REMARK  296  A    between atoms: _728  and  _729
REMARK  297  A    between atoms: _728  and  _731
REMARK  298  A    between atoms: _731  and  _732
REMARK  299  A    between atoms: _737  and  _739
REMARK  300  A    between atoms: _739  and  _740
REMARK  301  A    between atoms: _739  and  _742
REMARK  302  A    between atoms: _742  and  _743
REMARK  303  A    between atoms: _743  and  _755
REMARK  304  A    between atoms: _744  and  _746
REMARK  305  A    between atoms: _746  and  _747
REMARK  306  A    between atoms: _749  and  _751
REMARK  307  A    between atoms: _751  and  _752
REMARK  308  A    between atoms: _751  and  _754
REMARK  309  A    between atoms: _754  and  _755
REMARK  310  A    between atoms: _756  and  _758
REMARK  311  A    between atoms: _758  and  _759
REMARK  312  A    between atoms: _758  and  _761
REMARK  313  A    between atoms: _761  and  _762
REMARK  314  A    between atoms: _767  and  _769
REMARK  315  A    between atoms: _769  and  _770
REMARK  316  A    between atoms: _769  and  _772
REMARK  317  A    between atoms: _772  and  _773
REMARK  318  A    between atoms: _778  and  _779
REMARK  319  A    between atoms: _781  and  _783
REMARK  320  A    between atoms: _783  and  _784
REMARK  321  A    between atoms: _783  and  _786
REMARK  322  A    between atoms: _786  and  _787
REMARK                            x       y       z     vdW  Elec       q    Type
REMARK                         _______ _______ _______ _____ _____    ______ ____
ROOT
ATOM      1  O   HOH     1      15.631  11.263  25.921  0.00  0.00    +0.000 OA
ENDROOT
TORSDOF 0
REMARK  Name = ../refined-set-2016/1hn4/1hn4_pocket.pdb
REMARK  322 active torsions:
REMARK  status: ('A' for Active; 'I' for Inactive)
REMARK    1  A    between atoms: _1  and  _5
REMARK    2  A    between atoms: _5  and  _6
REMARK    3  A    between atoms: _8  and  _10
REMARK    4  A    between atoms: _10  and  _11
REMARK    5  A    between atoms: _10  and  _13
REMARK    6  A    between atoms: _13  and  _14
REMARK    7  A    between atoms: _17  and  _19
REMARK    8  A    between atoms: _19  and  _20
REMARK    9  A    between atoms: _19  and  _22
REMARK   10  A    between atoms: _22  and  _23
REMARK   11  A    between atoms: _25  and  _27
REMARK   12  A    between atoms: _27  and  _28
REMARK   13  A    between atoms: _27  and  _30
REMARK   14  A    between atoms: _30  and  _31
REMARK   15  A    between atoms: _33  and  _35
REMARK   16  A    between atoms: _35  and  _36
REMARK   17  A    between atoms: _35  and  _38
REMARK   18  A    between atoms: _38  and  _39
REMARK   19  A    between atoms: _39  and  _40
REMARK   20  A    between atoms: _40  and  _41
REMARK   21  A    between atoms: _50  and  _52
REMARK   22  A    between atoms: _52  and  _53
REMARK   23  A    between atoms: _56  and  _58
REMARK   24  A    between atoms: _58  and  _59
REMARK   25  A    between atoms: _58  and  _61
REMARK   26  A    between atoms: _61  and  _62
REMARK   27  A    between atoms: _65  and  _67
REMARK   28  A    between atoms: _67  and  _68
REMARK   29  A    between atoms: _67  and  _70
REMARK   30  A    between atoms: _70  and  _71
REMARK   31  A    between atoms: _81  and  _83
REMARK   32  A    between atoms: _83  and  _84
REMARK   33  A    between atoms: _83  and  _86
REMARK   34  A    between atoms: _86  and  _87
REMARK   35  A    between atoms: _87  and  _88
REMARK   36  A    between atoms: _93  and  _95
REMARK   37  A    between atoms: _95  and  _96
REMARK   38  A    between atoms: _95  and  _98
REMARK   39  A    between atoms: _98  and  _99
REMARK   40  A    between atoms: _105  and  _107
REMARK   41  A    between atoms: _107  and  _108
REMARK   42  A    between atoms: _107  and  _110
REMARK   43  A    between atoms: _110  and  _111
REMARK   44  A    between atoms: _111  and  _112
REMARK   45  A    between atoms: _112  and  _113
REMARK   46  A    between atoms: _122  and  _124
REMARK   47  A    between atoms: _124  and  _125
REMARK   48  A    between atoms: _124  and  _127
REMARK   49  A    between atoms: _127  and  _128
REMARK   50  A    between atoms: _130  and  _132
REMARK   51  A    between atoms: _132  and  _133
REMARK   52  A    between atoms: _132  and  _135
REMARK   53  A    between atoms: _135  and  _136
REMARK   54  A    between atoms: _136  and  _137
REMARK   55  A    between atoms: _139  and  _141
REMARK   56  A    between atoms: _141  and  _142
REMARK   57  A    between atoms: _141  and  _144
REMARK   58  A    between atoms: _144  and  _145
REMARK   59  A    between atoms: _148  and  _150
REMARK   60  A    between atoms: _150  and  _151
REMARK   61  A    between atoms: _150  and  _153
REMARK   62  A    between atoms: _153  and  _154
REMARK   63  A    between atoms: _154  and  _155
REMARK   64  A    between atoms: _155  and  _156
REMARK   65  A    between atoms: _156  and  _157
REMARK   66  A    between atoms: _161  and  _163
REMARK   67  A    between atoms: _163  and  _164
REMARK   68  A    between atoms: _163  and  _166
REMARK   69  A    between atoms: _166  and  _167
REMARK   70  A    between atoms: _173  and  _174
REMARK   71  A    between atoms: _179  and  _181
REMARK   72  A    between atoms: _181  and  _182
REMARK   73  A    between atoms: _181  and  _184
REMARK   74  A    between atoms: _184  and  _185
REMARK   75  A    between atoms: _188  and  _190
REMARK   76  A    between atoms: _190  and  _191
REMARK   77  A    between atoms: _190  and  _193
REMARK   78  A    between atoms: _193  and  _194
REMARK   79  A    between atoms: _194  and  _195
REMARK   80  A    between atoms: _197  and  _199
REMARK   81  A    between atoms: _199  and  _200
REMARK   82  A    between atoms: _199  and  _202
REMARK   83  A    between atoms: _202  and  _203
REMARK   84  A    between atoms: _206  and  _208
REMARK   85  A    between atoms: _208  and  _209
REMARK   86  A    between atoms: _208  and  _211
REMARK   87  A    between atoms: _211  and  _212
REMARK   88  A    between atoms: _218  and  _220
REMARK   89  A    between atoms: _220  and  _221
REMARK   90  A    between atoms: _220  and  _223
REMARK   91  A    between atoms: _223  and  _224
REMARK   92  A    between atoms: _229  and  _231
REMARK   93  A    between atoms: _231  and  _232
REMARK   94  A    between atoms: _231  and  _234
REMARK   95  A    between atoms: _234  and  _235
REMARK   96  A    between atoms: _240  and  _242
REMARK   97  A    between atoms: _242  and  _243
REMARK   98  A    between atoms: _242  and  _245
REMARK   99  A    between atoms: _245  and  _246
REMARK  100  A    between atoms: _251  and  _252
REMARK  101  A    between atoms: _254  and  _256
REMARK  102  A    between atoms: _256  and  _257
REMARK  103  A    between atoms: _256  and  _259
REMARK  104  A    between atoms: _261  and  _263
REMARK  105  A    between atoms: _263  and  _264
REMARK  106  A    between atoms: _263  and  _266
REMARK  107  A    between atoms: _266  and  _267
REMARK  108  A    between atoms: _272  and  _273
REMARK  109  A    between atoms: _277  and  _280
REMARK  110  A    between atoms: _280  and  _281
REMARK  111  A    between atoms: _281  and  _354
REMARK  112  A    between atoms: _285  and  _287
REMARK  113  A    between atoms: _287  and  _289
REMARK  114  A    between atoms: _289  and  _290
REMARK  115  A    between atoms: _289  and  _292
REMARK  116  A    between atoms: _292  and  _293
REMARK  117  A    between atoms: _296  and  _298
REMARK  118  A    between atoms: _298  and  _299
REMARK  119  A    between atoms: _301  and  _303
REMARK  120  A    between atoms: _303  and  _304
REMARK  121  A    between atoms: _306  and  _308
REMARK  122  A    between atoms: _308  and  _309
REMARK  123  A    between atoms: _308  and  _311
REMARK  124  A    between atoms: _311  and  _312
REMARK  125  A    between atoms: _315  and  _317
REMARK  126  A    between atoms: _317  and  _318
REMARK  127  A    between atoms: _317  and  _320
REMARK  128  A    between atoms: _320  and  _321
REMARK  129  A    between atoms: _324  and  _326
REMARK  130  A    between atoms: _326  and  _327
REMARK  131  A    between atoms: _326  and  _329
REMARK  132  A    between atoms: _329  and  _330
REMARK  133  A    between atoms: _330  and  _331
REMARK  134  A    between atoms: _331  and  _332
REMARK  135  A    between atoms: _341  and  _343
REMARK  136  A    between atoms: _343  and  _344
REMARK  137  A    between atoms: _343  and  _346
REMARK  138  A    between atoms: _348  and  _350
REMARK  139  A    between atoms: _350  and  _351
REMARK  140  A    between atoms: _350  and  _353
REMARK  141  A    between atoms: _353  and  _354
REMARK  142  A    between atoms: _355  and  _357
REMARK  143  A    between atoms: _357  and  _358
REMARK  144  A    between atoms: _357  and  _360
REMARK  145  A    between atoms: _360  and  _361
REMARK  146  A    between atoms: _361  and  _362
REMARK  147  A    between atoms: _365  and  _367
REMARK  148  A    between atoms: _367  and  _368
REMARK  149  A    between atoms: _367  and  _370
REMARK  150  A    between atoms: _370  and  _371
REMARK  151  A    between atoms: _374  and  _376
REMARK  152  A    between atoms: _376  and  _377
REMARK  153  A    between atoms: _376  and  _379
REMARK  154  A    between atoms: _379  and  _380
REMARK  155  A    between atoms: _385  and  _387
REMARK  156  A    between atoms: _387  and  _388
REMARK  157  A    between atoms: _387  and  _390
REMARK  158  A    between atoms: _390  and  _391
REMARK  159  A    between atoms: _394  and  _396
REMARK  160  A    between atoms: _396  and  _397
REMARK  161  A    between atoms: _396  and  _399
REMARK  162  A    between atoms: _399  and  _400
REMARK  163  A    between atoms: _405  and  _407
REMARK  164  A    between atoms: _407  and  _408
REMARK  165  A    between atoms: _407  and  _410
REMARK  166  A    between atoms: _410  and  _411
REMARK  167  A    between atoms: _411  and  _480
REMARK  168  A    between atoms: _412  and  _414
REMARK  169  A    between atoms: _414  and  _415
REMARK  170  A    between atoms: _414  and  _417
REMARK  171  A    between atoms: _417  and  _418
REMARK  172  A    between atoms: _423  and  _424
REMARK  173  A    between atoms: _426  and  _428
REMARK  174  A    between atoms: _428  and  _429
REMARK  175  A    between atoms: _428  and  _431
REMARK  176  A    between atoms: _431  and  _432
REMARK  177  A    between atoms: _432  and  _433
REMARK  178  A    between atoms: _433  and  _434
REMARK  179  A    between atoms: _443  and  _445
REMARK  180  A    between atoms: _445  and  _446
REMARK  181  A    between atoms: _445  and  _448
REMARK  182  A    between atoms: _448  and  _449
REMARK  183  A    between atoms: _452  and  _454
REMARK  184  A    between atoms: _454  and  _455
REMARK  185  A    between atoms: _454  and  _457
REMARK  186  A    between atoms: _457  and  _458
REMARK  187  A    between atoms: _458  and  _459
REMARK  188  A    between atoms: _459  and  _460
REMARK  189  A    between atoms: _460  and  _461
REMARK  190  A    between atoms: _465  and  _467
REMARK  191  A    between atoms: _467  and  _468
REMARK  192  A    between atoms: _467  and  _470
REMARK  193  A    between atoms: _470  and  _471
REMARK  194  A    between atoms: _474  and  _476
REMARK  195  A    between atoms: _476  and  _477
REMARK  196  A    between atoms: _476  and  _479
REMARK  197  A    between atoms: _479  and  _480
REMARK  198  A    between atoms: _481  and  _483
REMARK  199  A    between atoms: _483  and  _484
REMARK  200  A    between atoms: _483  and  _486
REMARK  201  A    between atoms: _486  and  _487
REMARK  202  A    between atoms: _490  and  _492
REMARK  203  A    between atoms: _492  and  _493
REMARK  204  A    between atoms: _496  and  _498
REMARK  205  A    between atoms: _498  and  _499
REMARK  206  A    between atoms: _502  and  _504
REMARK  207  A    between atoms: _504  and  _505
REMARK  208  A    between atoms: _504  and  _507
REMARK  209  A    between atoms: _507  and  _508
REMARK  210  A    between atoms: _514  and  _516
REMARK  211  A    between atoms: _516  and  _517
REMARK  212  A    between atoms: _516  and  _519
REMARK  213  A    between atoms: _519  and  _520
REMARK  214  A    between atoms: _522  and  _524
REMARK  215  A    between atoms: _524  and  _525
REMARK  216  A    between atoms: _524  and  _527
REMARK  217  A    between atoms: _527  and  _528
REMARK  218  A    between atoms: _530  and  _532
REMARK  219  A    between atoms: _532  and  _533
REMARK  220  A    between atoms: _532  and  _535
REMARK  221  A    between atoms: _535  and  _536
REMARK  222  A    between atoms: _536  and  _537
REMARK  223  A    between atoms: _537  and  _538
REMARK  224  A    between atoms: _547  and  _549
REMARK  225  A    between atoms: _549  and  _550
REMARK  226  A    between atoms: _553  and  _555
REMARK  227  A    between atoms: _555  and  _556
REMARK  228  A    between atoms: _555  and  _558
REMARK  229  A    between atoms: _558  and  _559
REMARK  230  A    between atoms: _562  and  _564
REMARK  231  A    between atoms: _564  and  _565
REMARK  232  A    between atoms: _564  and  _567
REMARK  233  A    between atoms: _567  and  _568
REMARK  234  A    between atoms: _578  and  _580
REMARK  235  A    between atoms: _580  and  _581
REMARK  236  A    between atoms: _580  and  _583
REMARK  237  A    between atoms: _583  and  _584
REMARK  238  A    between atoms: _584  and  _585
REMARK  239  A    between atoms: _590  and  _592
REMARK  240  A    between atoms: _592  and  _593
REMARK  241  A    between atoms: _592  and  _595
REMARK  242  A    between atoms: _595  and  _596
REMARK  243  A    between atoms: _602  and  _604
REMARK  244  A    between atoms: _604  and  _605
REMARK  245  A    between atoms: _604  and  _607
REMARK  246  A    between atoms: _607  and  _608
REMARK  247  A    between atoms: _608  and  _609
REMARK  248  A    between atoms: _609  and  _610
REMARK  249  A    between atoms: _619  and  _621
REMARK  250  A    between atoms: _621  and  _622
REMARK  251  A    between atoms: _621  and  _624
REMARK  252  A    between atoms: _624  and  _625
REMARK  253  A    between atoms: _627  and  _629
REMARK  254  A    between atoms: _629  and  _630
REMARK  255  A    between atoms: _629  and  _632
REMARK  256  A    between atoms: _632  and  _633
REMARK  257  A    between atoms: _633  and  _634
REMARK  258  A    between atoms: _636  and  _638
REMARK  259  A    between atoms: _638  and  _639
REMARK  260  A    between atoms: _638  and  _641
REMARK  261  A    between atoms: _641  and  _642
REMARK  262  A    between atoms: _645  and  _647
REMARK  263  A    between atoms: _647  and  _648
REMARK  264  A    between atoms: _647  and  _650
REMARK  265  A    between atoms: _650  and  _651
REMARK  266  A    between atoms: _651  and  _652
REMARK  267  A    between atoms: _652  and  _653
REMARK  268  A    between atoms: _653  and  _654
REMARK  269  A    between atoms: _658  and  _660
REMARK  270  A    between atoms: _660  and  _661
REMARK  271  A    between atoms: _660  and  _663
REMARK  272  A    between atoms: _663  and  _664
REMARK  273  A    between atoms: _670  and  _671
REMARK  274  A    between atoms: _676  and  _678
REMARK  275  A    between atoms: _678  and  _679
REMARK  276  A    between atoms: _678  and  _681
REMARK  277  A    between atoms: _681  and  _682
REMARK  278  A    between atoms: _685  and  _687
REMARK  279  A    between atoms: _687  and  _688
REMARK  280  A    between atoms: _687  and  _690
REMARK  281  A    between atoms: _690  and  _691
REMARK  282  A    between atoms: _691  and  _692
REMARK  283  A    between atoms: _694  and  _696
REMARK  284  A    between atoms: _696  and  _697
REMARK  285  A    between atoms: _696  and  _699
REMARK  286  A    between atoms: _699  and  _700
REMARK  287  A    between atoms: _703  and  _705
REMARK  288  A    between atoms: _705  and  _706
REMARK  289  A    between atoms: _705  and  _708
REMARK  290  A    between atoms: _708  and  _709
REMARK  291  A    between atoms: _715  and  _717
REMARK  292  A    between atoms: _717  and  _718
REMARK  293  A    between atoms: _717  and  _720
REMARK  294  A    between atoms: _720  and  _721
REMARK  295  A    between atoms: _726  and  _728
REMARK  296  A    between atoms: _728  and  _729
REMARK  297  A    between atoms: _728  and  _731
REMARK  298  A    between atoms: _731  and  _732
REMARK  299  A    between atoms: _737  and  _739
REMARK  300  A    between atoms: _739  and  _740
REMARK  301  A    between atoms: _739  and  _742
REMARK  302  A    between atoms: _742  and  _743
REMARK  303  A    between atoms: _743  and  _755
REMARK  304  A    between atoms: _744  and  _746
REMARK  305  A    between atoms: _746  and  _747
REMARK  306  A    between atoms: _749  and  _751
REMARK  307  A    between atoms: _751  and  _752
REMARK  308  A    between atoms: _751  and  _754
REMARK  309  A    between atoms: _754  and  _755
REMARK  310  A    between atoms: _756  and  _758
REMARK  311  A    between atoms: _758  and  _759
REMARK  312  A    between atoms: _758  and  _761
REMARK  313  A    between atoms: _761  and  _762
REMARK  314  A    between atoms: _767  and  _769
REMARK  315  A    between atoms: _769  and  _770
REMARK  316  A    between atoms: _769  and  _772
REMARK  317  A    between atoms: _772  and  _773
REMARK  318  A    between atoms: _778  and  _779
REMARK  319  A    between atoms: _781  and  _783
REMARK  320  A    between atoms: _783  and  _784
REMARK  321  A    between atoms: _783  and  _786
REMARK  322  A    between atoms: _786  and  _787
REMARK                            x       y       z     vdW  Elec       q    Type
REMARK                         _______ _______ _______ _____ _____    ______ ____
ROOT
ATOM      1  O   HOH     1      16.607   5.704  24.957  0.00  0.00    +0.000 OA
ENDROOT
TORSDOF 0
REMARK  Name = ../refined-set-2016/1hn4/1hn4_pocket.pdb
REMARK  322 active torsions:
REMARK  status: ('A' for Active; 'I' for Inactive)
REMARK    1  A    between atoms: _1  and  _5
REMARK    2  A    between atoms: _5  and  _6
REMARK    3  A    between atoms: _8  and  _10
REMARK    4  A    between atoms: _10  and  _11
REMARK    5  A    between atoms: _10  and  _13
REMARK    6  A    between atoms: _13  and  _14
REMARK    7  A    between atoms: _17  and  _19
REMARK    8  A    between atoms: _19  and  _20
REMARK    9  A    between atoms: _19  and  _22
REMARK   10  A    between atoms: _22  and  _23
REMARK   11  A    between atoms: _25  and  _27
REMARK   12  A    between atoms: _27  and  _28
REMARK   13  A    between atoms: _27  and  _30
REMARK   14  A    between atoms: _30  and  _31
REMARK   15  A    between atoms: _33  and  _35
REMARK   16  A    between atoms: _35  and  _36
REMARK   17  A    between atoms: _35  and  _38
REMARK   18  A    between atoms: _38  and  _39
REMARK   19  A    between atoms: _39  and  _40
REMARK   20  A    between atoms: _40  and  _41
REMARK   21  A    between atoms: _50  and  _52
REMARK   22  A    between atoms: _52  and  _53
REMARK   23  A    between atoms: _56  and  _58
REMARK   24  A    between atoms: _58  and  _59
REMARK   25  A    between atoms: _58  and  _61
REMARK   26  A    between atoms: _61  and  _62
REMARK   27  A    between atoms: _65  and  _67
REMARK   28  A    between atoms: _67  and  _68
REMARK   29  A    between atoms: _67  and  _70
REMARK   30  A    between atoms: _70  and  _71
REMARK   31  A    between atoms: _81  and  _83
REMARK   32  A    between atoms: _83  and  _84
REMARK   33  A    between atoms: _83  and  _86
REMARK   34  A    between atoms: _86  and  _87
REMARK   35  A    between atoms: _87  and  _88
REMARK   36  A    between atoms: _93  and  _95
REMARK   37  A    between atoms: _95  and  _96
REMARK   38  A    between atoms: _95  and  _98
REMARK   39  A    between atoms: _98  and  _99
REMARK   40  A    between atoms: _105  and  _107
REMARK   41  A    between atoms: _107  and  _108
REMARK   42  A    between atoms: _107  and  _110
REMARK   43  A    between atoms: _110  and  _111
REMARK   44  A    between atoms: _111  and  _112
REMARK   45  A    between atoms: _112  and  _113
REMARK   46  A    between atoms: _122  and  _124
REMARK   47  A    between atoms: _124  and  _125
REMARK   48  A    between atoms: _124  and  _127
REMARK   49  A    between atoms: _127  and  _128
REMARK   50  A    between atoms: _130  and  _132
REMARK   51  A    between atoms: _132  and  _133
REMARK   52  A    between atoms: _132  and  _135
REMARK   53  A    between atoms: _135  and  _136
REMARK   54  A    between atoms: _136  and  _137
REMARK   55  A    between atoms: _139  and  _141
REMARK   56  A    between atoms: _141  and  _142
REMARK   57  A    between atoms: _141  and  _144
REMARK   58  A    between atoms: _144  and  _145
REMARK   59  A    between atoms: _148  and  _150
REMARK   60  A    between atoms: _150  and  _151
REMARK   61  A    between atoms: _150  and  _153
REMARK   62  A    between atoms: _153  and  _154
REMARK   63  A    between atoms: _154  and  _155
REMARK   64  A    between atoms: _155  and  _156
REMARK   65  A    between atoms: _156  and  _157
REMARK   66  A    between atoms: _161  and  _163
REMARK   67  A    between atoms: _163  and  _164
REMARK   68  A    between atoms: _163  and  _166
REMARK   69  A    between atoms: _166  and  _167
REMARK   70  A    between atoms: _173  and  _174
REMARK   71  A    between atoms: _179  and  _181
REMARK   72  A    between atoms: _181  and  _182
REMARK   73  A    between atoms: _181  and  _184
REMARK   74  A    between atoms: _184  and  _185
REMARK   75  A    between atoms: _188  and  _190
REMARK   76  A    between atoms: _190  and  _191
REMARK   77  A    between atoms: _190  and  _193
REMARK   78  A    between atoms: _193  and  _194
REMARK   79  A    between atoms: _194  and  _195
REMARK   80  A    between atoms: _197  and  _199
REMARK   81  A    between atoms: _199  and  _200
REMARK   82  A    between atoms: _199  and  _202
REMARK   83  A    between atoms: _202  and  _203
REMARK   84  A    between atoms: _206  and  _208
REMARK   85  A    between atoms: _208  and  _209
REMARK   86  A    between atoms: _208  and  _211
REMARK   87  A    between atoms: _211  and  _212
REMARK   88  A    between atoms: _218  and  _220
REMARK   89  A    between atoms: _220  and  _221
REMARK   90  A    between atoms: _220  and  _223
REMARK   91  A    between atoms: _223  and  _224
REMARK   92  A    between atoms: _229  and  _231
REMARK   93  A    between atoms: _231  and  _232
REMARK   94  A    between atoms: _231  and  _234
REMARK   95  A    between atoms: _234  and  _235
REMARK   96  A    between atoms: _240  and  _242
REMARK   97  A    between atoms: _242  and  _243
REMARK   98  A    between atoms: _242  and  _245
REMARK   99  A    between atoms: _245  and  _246
REMARK  100  A    between atoms: _251  and  _252
REMARK  101  A    between atoms: _254  and  _256
REMARK  102  A    between atoms: _256  and  _257
REMARK  103  A    between atoms: _256  and  _259
REMARK  104  A    between atoms: _261  and  _263
REMARK  105  A    between atoms: _263  and  _264
REMARK  106  A    between atoms: _263  and  _266
REMARK  107  A    between atoms: _266  and  _267
REMARK  108  A    between atoms: _272  and  _273
REMARK  109  A    between atoms: _277  and  _280
REMARK  110  A    between atoms: _280  and  _281
REMARK  111  A    between atoms: _281  and  _354
REMARK  112  A    between atoms: _285  and  _287
REMARK  113  A    between atoms: _287  and  _289
REMARK  114  A    between atoms: _289  and  _290
REMARK  115  A    between atoms: _289  and  _292
REMARK  116  A    between atoms: _292  and  _293
REMARK  117  A    between atoms: _296  and  _298
REMARK  118  A    between atoms: _298  and  _299
REMARK  119  A    between atoms: _301  and  _303
REMARK  120  A    between atoms: _303  and  _304
REMARK  121  A    between atoms: _306  and  _308
REMARK  122  A    between atoms: _308  and  _309
REMARK  123  A    between atoms: _308  and  _311
REMARK  124  A    between atoms: _311  and  _312
REMARK  125  A    between atoms: _315  and  _317
REMARK  126  A    between atoms: _317  and  _318
REMARK  127  A    between atoms: _317  and  _320
REMARK  128  A    between atoms: _320  and  _321
REMARK  129  A    between atoms: _324  and  _326
REMARK  130  A    between atoms: _326  and  _327
REMARK  131  A    between atoms: _326  and  _329
REMARK  132  A    between atoms: _329  and  _330
REMARK  133  A    between atoms: _330  and  _331
REMARK  134  A    between atoms: _331  and  _332
REMARK  135  A    between atoms: _341  and  _343
REMARK  136  A    between atoms: _343  and  _344
REMARK  137  A    between atoms: _343  and  _346
REMARK  138  A    between atoms: _348  and  _350
REMARK  139  A    between atoms: _350  and  _351
REMARK  140  A    between atoms: _350  and  _353
REMARK  141  A    between atoms: _353  and  _354
REMARK  142  A    between atoms: _355  and  _357
REMARK  143  A    between atoms: _357  and  _358
REMARK  144  A    between atoms: _357  and  _360
REMARK  145  A    between atoms: _360  and  _361
REMARK  146  A    between atoms: _361  and  _362
REMARK  147  A    between atoms: _365  and  _367
REMARK  148  A    between atoms: _367  and  _368
REMARK  149  A    between atoms: _367  and  _370
REMARK  150  A    between atoms: _370  and  _371
REMARK  151  A    between atoms: _374  and  _376
REMARK  152  A    between atoms: _376  and  _377
REMARK  153  A    between atoms: _376  and  _379
REMARK  154  A    between atoms: _379  and  _380
REMARK  155  A    between atoms: _385  and  _387
REMARK  156  A    between atoms: _387  and  _388
REMARK  157  A    between atoms: _387  and  _390
REMARK  158  A    between atoms: _390  and  _391
REMARK  159  A    between atoms: _394  and  _396
REMARK  160  A    between atoms: _396  and  _397
REMARK  161  A    between atoms: _396  and  _399
REMARK  162  A    between atoms: _399  and  _400
REMARK  163  A    between atoms: _405  and  _407
REMARK  164  A    between atoms: _407  and  _408
REMARK  165  A    between atoms: _407  and  _410
REMARK  166  A    between atoms: _410  and  _411
REMARK  167  A    between atoms: _411  and  _480
REMARK  168  A    between atoms: _412  and  _414
REMARK  169  A    between atoms: _414  and  _415
REMARK  170  A    between atoms: _414  and  _417
REMARK  171  A    between atoms: _417  and  _418
REMARK  172  A    between atoms: _423  and  _424
REMARK  173  A    between atoms: _426  and  _428
REMARK  174  A    between atoms: _428  and  _429
REMARK  175  A    between atoms: _428  and  _431
REMARK  176  A    between atoms: _431  and  _432
REMARK  177  A    between atoms: _432  and  _433
REMARK  178  A    between atoms: _433  and  _434
REMARK  179  A    between atoms: _443  and  _445
REMARK  180  A    between atoms: _445  and  _446
REMARK  181  A    between atoms: _445  and  _448
REMARK  182  A    between atoms: _448  and  _449
REMARK  183  A    between atoms: _452  and  _454
REMARK  184  A    between atoms: _454  and  _455
REMARK  185  A    between atoms: _454  and  _457
REMARK  186  A    between atoms: _457  and  _458
REMARK  187  A    between atoms: _458  and  _459
REMARK  188  A    between atoms: _459  and  _460
REMARK  189  A    between atoms: _460  and  _461
REMARK  190  A    between atoms: _465  and  _467
REMARK  191  A    between atoms: _467  and  _468
REMARK  192  A    between atoms: _467  and  _470
REMARK  193  A    between atoms: _470  and  _471
REMARK  194  A    between atoms: _474  and  _476
REMARK  195  A    between atoms: _476  and  _477
REMARK  196  A    between atoms: _476  and  _479
REMARK  197  A    between atoms: _479  and  _480
REMARK  198  A    between atoms: _481  and  _483
REMARK  199  A    between atoms: _483  and  _484
REMARK  200  A    between atoms: _483  and  _486
REMARK  201  A    between atoms: _486  and  _487
REMARK  202  A    between atoms: _490  and  _492
REMARK  203  A    between atoms: _492  and  _493
REMARK  204  A    between atoms: _496  and  _498
REMARK  205  A    between atoms: _498  and  _499
REMARK  206  A    between atoms: _502  and  _504
REMARK  207  A    between atoms: _504  and  _505
REMARK  208  A    between atoms: _504  and  _507
REMARK  209  A    between atoms: _507  and  _508
REMARK  210  A    between atoms: _514  and  _516
REMARK  211  A    between atoms: _516  and  _517
REMARK  212  A    between atoms: _516  and  _519
REMARK  213  A    between atoms: _519  and  _520
REMARK  214  A    between atoms: _522  and  _524
REMARK  215  A    between atoms: _524  and  _525
REMARK  216  A    between atoms: _524  and  _527
REMARK  217  A    between atoms: _527  and  _528
REMARK  218  A    between atoms: _530  and  _532
REMARK  219  A    between atoms: _532  and  _533
REMARK  220  A    between atoms: _532  and  _535
REMARK  221  A    between atoms: _535  and  _536
REMARK  222  A    between atoms: _536  and  _537
REMARK  223  A    between atoms: _537  and  _538
REMARK  224  A    between atoms: _547  and  _549
REMARK  225  A    between atoms: _549  and  _550
REMARK  226  A    between atoms: _553  and  _555
REMARK  227  A    between atoms: _555  and  _556
REMARK  228  A    between atoms: _555  and  _558
REMARK  229  A    between atoms: _558  and  _559
REMARK  230  A    between atoms: _562  and  _564
REMARK  231  A    between atoms: _564  and  _565
REMARK  232  A    between atoms: _564  and  _567
REMARK  233  A    between atoms: _567  and  _568
REMARK  234  A    between atoms: _578  and  _580
REMARK  235  A    between atoms: _580  and  _581
REMARK  236  A    between atoms: _580  and  _583
REMARK  237  A    between atoms: _583  and  _584
REMARK  238  A    between atoms: _584  and  _585
REMARK  239  A    between atoms: _590  and  _592
REMARK  240  A    between atoms: _592  and  _593
REMARK  241  A    between atoms: _592  and  _595
REMARK  242  A    between atoms: _595  and  _596
REMARK  243  A    between atoms: _602  and  _604
REMARK  244  A    between atoms: _604  and  _605
REMARK  245  A    between atoms: _604  and  _607
REMARK  246  A    between atoms: _607  and  _608
REMARK  247  A    between atoms: _608  and  _609
REMARK  248  A    between atoms: _609  and  _610
REMARK  249  A    between atoms: _619  and  _621
REMARK  250  A    between atoms: _621  and  _622
REMARK  251  A    between atoms: _621  and  _624
REMARK  252  A    between atoms: _624  and  _625
REMARK  253  A    between atoms: _627  and  _629
REMARK  254  A    between atoms: _629  and  _630
REMARK  255  A    between atoms: _629  and  _632
REMARK  256  A    between atoms: _632  and  _633
REMARK  257  A    between atoms: _633  and  _634
REMARK  258  A    between atoms: _636  and  _638
REMARK  259  A    between atoms: _638  and  _639
REMARK  260  A    between atoms: _638  and  _641
REMARK  261  A    between atoms: _641  and  _642
REMARK  262  A    between atoms: _645  and  _647
REMARK  263  A    between atoms: _647  and  _648
REMARK  264  A    between atoms: _647  and  _650
REMARK  265  A    between atoms: _650  and  _651
REMARK  266  A    between atoms: _651  and  _652
REMARK  267  A    between atoms: _652  and  _653
REMARK  268  A    between atoms: _653  and  _654
REMARK  269  A    between atoms: _658  and  _660
REMARK  270  A    between atoms: _660  and  _661
REMARK  271  A    between atoms: _660  and  _663
REMARK  272  A    between atoms: _663  and  _664
REMARK  273  A    between atoms: _670  and  _671
REMARK  274  A    between atoms: _676  and  _678
REMARK  275  A    between atoms: _678  and  _679
REMARK  276  A    between atoms: _678  and  _681
REMARK  277  A    between atoms: _681  and  _682
REMARK  278  A    between atoms: _685  and  _687
REMARK  279  A    between atoms: _687  and  _688
REMARK  280  A    between atoms: _687  and  _690
REMARK  281  A    between atoms: _690  and  _691
REMARK  282  A    between atoms: _691  and  _692
REMARK  283  A    between atoms: _694  and  _696
REMARK  284  A    between atoms: _696  and  _697
REMARK  285  A    between atoms: _696  and  _699
REMARK  286  A    between atoms: _699  and  _700
REMARK  287  A    between atoms: _703  and  _705
REMARK  288  A    between atoms: _705  and  _706
REMARK  289  A    between atoms: _705  and  _708
REMARK  290  A    between atoms: _708  and  _709
REMARK  291  A    between atoms: _715  and  _717
REMARK  292  A    between atoms: _717  and  _718
REMARK  293  A    between atoms: _717  and  _720
REMARK  294  A    between atoms: _720  and  _721
REMARK  295  A    between atoms: _726  and  _728
REMARK  296  A    between atoms: _728  and  _729
REMARK  297  A    between atoms: _728  and  _731
REMARK  298  A    between atoms: _731  and  _732
REMARK  299  A    between atoms: _737  and  _739
REMARK  300  A    between atoms: _739  and  _740
REMARK  301  A    between atoms: _739  and  _742
REMARK  302  A    between atoms: _742  and  _743
REMARK  303  A    between atoms: _743  and  _755
REMARK  304  A    between atoms: _744  and  _746
REMARK  305  A    between atoms: _746  and  _747
REMARK  306  A    between atoms: _749  and  _751
REMARK  307  A    between atoms: _751  and  _752
REMARK  308  A    between atoms: _751  and  _754
REMARK  309  A    between atoms: _754  and  _755
REMARK  310  A    between atoms: _756  and  _758
REMARK  311  A    between atoms: _758  and  _759
REMARK  312  A    between atoms: _758  and  _761
REMARK  313  A    between atoms: _761  and  _762
REMARK  314  A    between atoms: _767  and  _769
REMARK  315  A    between atoms: _769  and  _770
REMARK  316  A    between atoms: _769  and  _772
REMARK  317  A    between atoms: _772  and  _773
REMARK  318  A    between atoms: _778  and  _779
REMARK  319  A    between atoms: _781  and  _783
REMARK  320  A    between atoms: _783  and  _784
REMARK  321  A    between atoms: _783  and  _786
REMARK  322  A    between atoms: _786  and  _787
REMARK                            x       y       z     vdW  Elec       q    Type
REMARK                         _______ _______ _______ _____ _____    ______ ____
ROOT
ATOM      1  O   HOH     1      16.664   8.798  25.235  0.00  0.00    +0.000 OA
ENDROOT
TORSDOF 0
REMARK  Name = ../refined-set-2016/1hn4/1hn4_pocket.pdb
REMARK  322 active torsions:
REMARK  status: ('A' for Active; 'I' for Inactive)
REMARK    1  A    between atoms: _1  and  _5
REMARK    2  A    between atoms: _5  and  _6
REMARK    3  A    between atoms: _8  and  _10
REMARK    4  A    between atoms: _10  and  _11
REMARK    5  A    between atoms: _10  and  _13
REMARK    6  A    between atoms: _13  and  _14
REMARK    7  A    between atoms: _17  and  _19
REMARK    8  A    between atoms: _19  and  _20
REMARK    9  A    between atoms: _19  and  _22
REMARK   10  A    between atoms: _22  and  _23
REMARK   11  A    between atoms: _25  and  _27
REMARK   12  A    between atoms: _27  and  _28
REMARK   13  A    between atoms: _27  and  _30
REMARK   14  A    between atoms: _30  and  _31
REMARK   15  A    between atoms: _33  and  _35
REMARK   16  A    between atoms: _35  and  _36
REMARK   17  A    between atoms: _35  and  _38
REMARK   18  A    between atoms: _38  and  _39
REMARK   19  A    between atoms: _39  and  _40
REMARK   20  A    between atoms: _40  and  _41
REMARK   21  A    between atoms: _50  and  _52
REMARK   22  A    between atoms: _52  and  _53
REMARK   23  A    between atoms: _56  and  _58
REMARK   24  A    between atoms: _58  and  _59
REMARK   25  A    between atoms: _58  and  _61
REMARK   26  A    between atoms: _61  and  _62
REMARK   27  A    between atoms: _65  and  _67
REMARK   28  A    between atoms: _67  and  _68
REMARK   29  A    between atoms: _67  and  _70
REMARK   30  A    between atoms: _70  and  _71
REMARK   31  A    between atoms: _81  and  _83
REMARK   32  A    between atoms: _83  and  _84
REMARK   33  A    between atoms: _83  and  _86
REMARK   34  A    between atoms: _86  and  _87
REMARK   35  A    between atoms: _87  and  _88
REMARK   36  A    between atoms: _93  and  _95
REMARK   37  A    between atoms: _95  and  _96
REMARK   38  A    between atoms: _95  and  _98
REMARK   39  A    between atoms: _98  and  _99
REMARK   40  A    between atoms: _105  and  _107
REMARK   41  A    between atoms: _107  and  _108
REMARK   42  A    between atoms: _107  and  _110
REMARK   43  A    between atoms: _110  and  _111
REMARK   44  A    between atoms: _111  and  _112
REMARK   45  A    between atoms: _112  and  _113
REMARK   46  A    between atoms: _122  and  _124
REMARK   47  A    between atoms: _124  and  _125
REMARK   48  A    between atoms: _124  and  _127
REMARK   49  A    between atoms: _127  and  _128
REMARK   50  A    between atoms: _130  and  _132
REMARK   51  A    between atoms: _132  and  _133
REMARK   52  A    between atoms: _132  and  _135
REMARK   53  A    between atoms: _135  and  _136
REMARK   54  A    between atoms: _136  and  _137
REMARK   55  A    between atoms: _139  and  _141
REMARK   56  A    between atoms: _141  and  _142
REMARK   57  A    between atoms: _141  and  _144
REMARK   58  A    between atoms: _144  and  _145
REMARK   59  A    between atoms: _148  and  _150
REMARK   60  A    between atoms: _150  and  _151
REMARK   61  A    between atoms: _150  and  _153
REMARK   62  A    between atoms: _153  and  _154
REMARK   63  A    between atoms: _154  and  _155
REMARK   64  A    between atoms: _155  and  _156
REMARK   65  A    between atoms: _156  and  _157
REMARK   66  A    between atoms: _161  and  _163
REMARK   67  A    between atoms: _163  and  _164
REMARK   68  A    between atoms: _163  and  _166
REMARK   69  A    between atoms: _166  and  _167
REMARK   70  A    between atoms: _173  and  _174
REMARK   71  A    between atoms: _179  and  _181
REMARK   72  A    between atoms: _181  and  _182
REMARK   73  A    between atoms: _181  and  _184
REMARK   74  A    between atoms: _184  and  _185
REMARK   75  A    between atoms: _188  and  _190
REMARK   76  A    between atoms: _190  and  _191
REMARK   77  A    between atoms: _190  and  _193
REMARK   78  A    between atoms: _193  and  _194
REMARK   79  A    between atoms: _194  and  _195
REMARK   80  A    between atoms: _197  and  _199
REMARK   81  A    between atoms: _199  and  _200
REMARK   82  A    between atoms: _199  and  _202
REMARK   83  A    between atoms: _202  and  _203
REMARK   84  A    between atoms: _206  and  _208
REMARK   85  A    between atoms: _208  and  _209
REMARK   86  A    between atoms: _208  and  _211
REMARK   87  A    between atoms: _211  and  _212
REMARK   88  A    between atoms: _218  and  _220
REMARK   89  A    between atoms: _220  and  _221
REMARK   90  A    between atoms: _220  and  _223
REMARK   91  A    between atoms: _223  and  _224
REMARK   92  A    between atoms: _229  and  _231
REMARK   93  A    between atoms: _231  and  _232
REMARK   94  A    between atoms: _231  and  _234
REMARK   95  A    between atoms: _234  and  _235
REMARK   96  A    between atoms: _240  and  _242
REMARK   97  A    between atoms: _242  and  _243
REMARK   98  A    between atoms: _242  and  _245
REMARK   99  A    between atoms: _245  and  _246
REMARK  100  A    between atoms: _251  and  _252
REMARK  101  A    between atoms: _254  and  _256
REMARK  102  A    between atoms: _256  and  _257
REMARK  103  A    between atoms: _256  and  _259
REMARK  104  A    between atoms: _261  and  _263
REMARK  105  A    between atoms: _263  and  _264
REMARK  106  A    between atoms: _263  and  _266
REMARK  107  A    between atoms: _266  and  _267
REMARK  108  A    between atoms: _272  and  _273
REMARK  109  A    between atoms: _277  and  _280
REMARK  110  A    between atoms: _280  and  _281
REMARK  111  A    between atoms: _281  and  _354
REMARK  112  A    between atoms: _285  and  _287
REMARK  113  A    between atoms: _287  and  _289
REMARK  114  A    between atoms: _289  and  _290
REMARK  115  A    between atoms: _289  and  _292
REMARK  116  A    between atoms: _292  and  _293
REMARK  117  A    between atoms: _296  and  _298
REMARK  118  A    between atoms: _298  and  _299
REMARK  119  A    between atoms: _301  and  _303
REMARK  120  A    between atoms: _303  and  _304
REMARK  121  A    between atoms: _306  and  _308
REMARK  122  A    between atoms: _308  and  _309
REMARK  123  A    between atoms: _308  and  _311
REMARK  124  A    between atoms: _311  and  _312
REMARK  125  A    between atoms: _315  and  _317
REMARK  126  A    between atoms: _317  and  _318
REMARK  127  A    between atoms: _317  and  _320
REMARK  128  A    between atoms: _320  and  _321
REMARK  129  A    between atoms: _324  and  _326
REMARK  130  A    between atoms: _326  and  _327
REMARK  131  A    between atoms: _326  and  _329
REMARK  132  A    between atoms: _329  and  _330
REMARK  133  A    between atoms: _330  and  _331
REMARK  134  A    between atoms: _331  and  _332
REMARK  135  A    between atoms: _341  and  _343
REMARK  136  A    between atoms: _343  and  _344
REMARK  137  A    between atoms: _343  and  _346
REMARK  138  A    between atoms: _348  and  _350
REMARK  139  A    between atoms: _350  and  _351
REMARK  140  A    between atoms: _350  and  _353
REMARK  141  A    between atoms: _353  and  _354
REMARK  142  A    between atoms: _355  and  _357
REMARK  143  A    between atoms: _357  and  _358
REMARK  144  A    between atoms: _357  and  _360
REMARK  145  A    between atoms: _360  and  _361
REMARK  146  A    between atoms: _361  and  _362
REMARK  147  A    between atoms: _365  and  _367
REMARK  148  A    between atoms: _367  and  _368
REMARK  149  A    between atoms: _367  and  _370
REMARK  150  A    between atoms: _370  and  _371
REMARK  151  A    between atoms: _374  and  _376
REMARK  152  A    between atoms: _376  and  _377
REMARK  153  A    between atoms: _376  and  _379
REMARK  154  A    between atoms: _379  and  _380
REMARK  155  A    between atoms: _385  and  _387
REMARK  156  A    between atoms: _387  and  _388
REMARK  157  A    between atoms: _387  and  _390
REMARK  158  A    between atoms: _390  and  _391
REMARK  159  A    between atoms: _394  and  _396
REMARK  160  A    between atoms: _396  and  _397
REMARK  161  A    between atoms: _396  and  _399
REMARK  162  A    between atoms: _399  and  _400
REMARK  163  A    between atoms: _405  and  _407
REMARK  164  A    between atoms: _407  and  _408
REMARK  165  A    between atoms: _407  and  _410
REMARK  166  A    between atoms: _410  and  _411
REMARK  167  A    between atoms: _411  and  _480
REMARK  168  A    between atoms: _412  and  _414
REMARK  169  A    between atoms: _414  and  _415
REMARK  170  A    between atoms: _414  and  _417
REMARK  171  A    between atoms: _417  and  _418
REMARK  172  A    between atoms: _423  and  _424
REMARK  173  A    between atoms: _426  and  _428
REMARK  174  A    between atoms: _428  and  _429
REMARK  175  A    between atoms: _428  and  _431
REMARK  176  A    between atoms: _431  and  _432
REMARK  177  A    between atoms: _432  and  _433
REMARK  178  A    between atoms: _433  and  _434
REMARK  179  A    between atoms: _443  and  _445
REMARK  180  A    between atoms: _445  and  _446
REMARK  181  A    between atoms: _445  and  _448
REMARK  182  A    between atoms: _448  and  _449
REMARK  183  A    between atoms: _452  and  _454
REMARK  184  A    between atoms: _454  and  _455
REMARK  185  A    between atoms: _454  and  _457
REMARK  186  A    between atoms: _457  and  _458
REMARK  187  A    between atoms: _458  and  _459
REMARK  188  A    between atoms: _459  and  _460
REMARK  189  A    between atoms: _460  and  _461
REMARK  190  A    between atoms: _465  and  _467
REMARK  191  A    between atoms: _467  and  _468
REMARK  192  A    between atoms: _467  and  _470
REMARK  193  A    between atoms: _470  and  _471
REMARK  194  A    between atoms: _474  and  _476
REMARK  195  A    between atoms: _476  and  _477
REMARK  196  A    between atoms: _476  and  _479
REMARK  197  A    between atoms: _479  and  _480
REMARK  198  A    between atoms: _481  and  _483
REMARK  199  A    between atoms: _483  and  _484
REMARK  200  A    between atoms: _483  and  _486
REMARK  201  A    between atoms: _486  and  _487
REMARK  202  A    between atoms: _490  and  _492
REMARK  203  A    between atoms: _492  and  _493
REMARK  204  A    between atoms: _496  and  _498
REMARK  205  A    between atoms: _498  and  _499
REMARK  206  A    between atoms: _502  and  _504
REMARK  207  A    between atoms: _504  and  _505
REMARK  208  A    between atoms: _504  and  _507
REMARK  209  A    between atoms: _507  and  _508
REMARK  210  A    between atoms: _514  and  _516
REMARK  211  A    between atoms: _516  and  _517
REMARK  212  A    between atoms: _516  and  _519
REMARK  213  A    between atoms: _519  and  _520
REMARK  214  A    between atoms: _522  and  _524
REMARK  215  A    between atoms: _524  and  _525
REMARK  216  A    between atoms: _524  and  _527
REMARK  217  A    between atoms: _527  and  _528
REMARK  218  A    between atoms: _530  and  _532
REMARK  219  A    between atoms: _532  and  _533
REMARK  220  A    between atoms: _532  and  _535
REMARK  221  A    between atoms: _535  and  _536
REMARK  222  A    between atoms: _536  and  _537
REMARK  223  A    between atoms: _537  and  _538
REMARK  224  A    between atoms: _547  and  _549
REMARK  225  A    between atoms: _549  and  _550
REMARK  226  A    between atoms: _553  and  _555
REMARK  227  A    between atoms: _555  and  _556
REMARK  228  A    between atoms: _555  and  _558
REMARK  229  A    between atoms: _558  and  _559
REMARK  230  A    between atoms: _562  and  _564
REMARK  231  A    between atoms: _564  and  _565
REMARK  232  A    between atoms: _564  and  _567
REMARK  233  A    between atoms: _567  and  _568
REMARK  234  A    between atoms: _578  and  _580
REMARK  235  A    between atoms: _580  and  _581
REMARK  236  A    between atoms: _580  and  _583
REMARK  237  A    between atoms: _583  and  _584
REMARK  238  A    between atoms: _584  and  _585
REMARK  239  A    between atoms: _590  and  _592
REMARK  240  A    between atoms: _592  and  _593
REMARK  241  A    between atoms: _592  and  _595
REMARK  242  A    between atoms: _595  and  _596
REMARK  243  A    between atoms: _602  and  _604
REMARK  244  A    between atoms: _604  and  _605
REMARK  245  A    between atoms: _604  and  _607
REMARK  246  A    between atoms: _607  and  _608
REMARK  247  A    between atoms: _608  and  _609
REMARK  248  A    between atoms: _609  and  _610
REMARK  249  A    between atoms: _619  and  _621
REMARK  250  A    between atoms: _621  and  _622
REMARK  251  A    between atoms: _621  and  _624
REMARK  252  A    between atoms: _624  and  _625
REMARK  253  A    between atoms: _627  and  _629
REMARK  254  A    between atoms: _629  and  _630
REMARK  255  A    between atoms: _629  and  _632
REMARK  256  A    between atoms: _632  and  _633
REMARK  257  A    between atoms: _633  and  _634
REMARK  258  A    between atoms: _636  and  _638
REMARK  259  A    between atoms: _638  and  _639
REMARK  260  A    between atoms: _638  and  _641
REMARK  261  A    between atoms: _641  and  _642
REMARK  262  A    between atoms: _645  and  _647
REMARK  263  A    between atoms: _647  and  _648
REMARK  264  A    between atoms: _647  and  _650
REMARK  265  A    between atoms: _650  and  _651
REMARK  266  A    between atoms: _651  and  _652
REMARK  267  A    between atoms: _652  and  _653
REMARK  268  A    between atoms: _653  and  _654
REMARK  269  A    between atoms: _658  and  _660
REMARK  270  A    between atoms: _660  and  _661
REMARK  271  A    between atoms: _660  and  _663
REMARK  272  A    between atoms: _663  and  _664
REMARK  273  A    between atoms: _670  and  _671
REMARK  274  A    between atoms: _676  and  _678
REMARK  275  A    between atoms: _678  and  _679
REMARK  276  A    between atoms: _678  and  _681
REMARK  277  A    between atoms: _681  and  _682
REMARK  278  A    between atoms: _685  and  _687
REMARK  279  A    between atoms: _687  and  _688
REMARK  280  A    between atoms: _687  and  _690
REMARK  281  A    between atoms: _690  and  _691
REMARK  282  A    between atoms: _691  and  _692
REMARK  283  A    between atoms: _694  and  _696
REMARK  284  A    between atoms: _696  and  _697
REMARK  285  A    between atoms: _696  and  _699
REMARK  286  A    between atoms: _699  and  _700
REMARK  287  A    between atoms: _703  and  _705
REMARK  288  A    between atoms: _705  and  _706
REMARK  289  A    between atoms: _705  and  _708
REMARK  290  A    between atoms: _708  and  _709
REMARK  291  A    between atoms: _715  and  _717
REMARK  292  A    between atoms: _717  and  _718
REMARK  293  A    between atoms: _717  and  _720
REMARK  294  A    between atoms: _720  and  _721
REMARK  295  A    between atoms: _726  and  _728
REMARK  296  A    between atoms: _728  and  _729
REMARK  297  A    between atoms: _728  and  _731
REMARK  298  A    between atoms: _731  and  _732
REMARK  299  A    between atoms: _737  and  _739
REMARK  300  A    between atoms: _739  and  _740
REMARK  301  A    between atoms: _739  and  _742
REMARK  302  A    between atoms: _742  and  _743
REMARK  303  A    between atoms: _743  and  _755
REMARK  304  A    between atoms: _744  and  _746
REMARK  305  A    between atoms: _746  and  _747
REMARK  306  A    between atoms: _749  and  _751
REMARK  307  A    between atoms: _751  and  _752
REMARK  308  A    between atoms: _751  and  _754
REMARK  309  A    between atoms: _754  and  _755
REMARK  310  A    between atoms: _756  and  _758
REMARK  311  A    between atoms: _758  and  _759
REMARK  312  A    between atoms: _758  and  _761
REMARK  313  A    between atoms: _761  and  _762
REMARK  314  A    between atoms: _767  and  _769
REMARK  315  A    between atoms: _769  and  _770
REMARK  316  A    between atoms: _769  and  _772
REMARK  317  A    between atoms: _772  and  _773
REMARK  318  A    between atoms: _778  and  _779
REMARK  319  A    between atoms: _781  and  _783
REMARK  320  A    between atoms: _783  and  _784
REMARK  321  A    between atoms: _783  and  _786
REMARK  322  A    between atoms: _786  and  _787
REMARK                            x       y       z     vdW  Elec       q    Type
REMARK                         _______ _______ _______ _____ _____    ______ ____
ROOT
ATOM      1  O   HOH     1      19.806   5.157  25.836  0.00  0.00    +0.000 OA
ENDROOT
TORSDOF 0
REMARK  Name = ../refined-set-2016/1hn4/1hn4_pocket.pdb
REMARK  322 active torsions:
REMARK  status: ('A' for Active; 'I' for Inactive)
REMARK    1  A    between atoms: _1  and  _5
REMARK    2  A    between atoms: _5  and  _6
REMARK    3  A    between atoms: _8  and  _10
REMARK    4  A    between atoms: _10  and  _11
REMARK    5  A    between atoms: _10  and  _13
REMARK    6  A    between atoms: _13  and  _14
REMARK    7  A    between atoms: _17  and  _19
REMARK    8  A    between atoms: _19  and  _20
REMARK    9  A    between atoms: _19  and  _22
REMARK   10  A    between atoms: _22  and  _23
REMARK   11  A    between atoms: _25  and  _27
REMARK   12  A    between atoms: _27  and  _28
REMARK   13  A    between atoms: _27  and  _30
REMARK   14  A    between atoms: _30  and  _31
REMARK   15  A    between atoms: _33  and  _35
REMARK   16  A    between atoms: _35  and  _36
REMARK   17  A    between atoms: _35  and  _38
REMARK   18  A    between atoms: _38  and  _39
REMARK   19  A    between atoms: _39  and  _40
REMARK   20  A    between atoms: _40  and  _41
REMARK   21  A    between atoms: _50  and  _52
REMARK   22  A    between atoms: _52  and  _53
REMARK   23  A    between atoms: _56  and  _58
REMARK   24  A    between atoms: _58  and  _59
REMARK   25  A    between atoms: _58  and  _61
REMARK   26  A    between atoms: _61  and  _62
REMARK   27  A    between atoms: _65  and  _67
REMARK   28  A    between atoms: _67  and  _68
REMARK   29  A    between atoms: _67  and  _70
REMARK   30  A    between atoms: _70  and  _71
REMARK   31  A    between atoms: _81  and  _83
REMARK   32  A    between atoms: _83  and  _84
REMARK   33  A    between atoms: _83  and  _86
REMARK   34  A    between atoms: _86  and  _87
REMARK   35  A    between atoms: _87  and  _88
REMARK   36  A    between atoms: _93  and  _95
REMARK   37  A    between atoms: _95  and  _96
REMARK   38  A    between atoms: _95  and  _98
REMARK   39  A    between atoms: _98  and  _99
REMARK   40  A    between atoms: _105  and  _107
REMARK   41  A    between atoms: _107  and  _108
REMARK   42  A    between atoms: _107  and  _110
REMARK   43  A    between atoms: _110  and  _111
REMARK   44  A    between atoms: _111  and  _112
REMARK   45  A    between atoms: _112  and  _113
REMARK   46  A    between atoms: _122  and  _124
REMARK   47  A    between atoms: _124  and  _125
REMARK   48  A    between atoms: _124  and  _127
REMARK   49  A    between atoms: _127  and  _128
REMARK   50  A    between atoms: _130  and  _132
REMARK   51  A    between atoms: _132  and  _133
REMARK   52  A    between atoms: _132  and  _135
REMARK   53  A    between atoms: _135  and  _136
REMARK   54  A    between atoms: _136  and  _137
REMARK   55  A    between atoms: _139  and  _141
REMARK   56  A    between atoms: _141  and  _142
REMARK   57  A    between atoms: _141  and  _144
REMARK   58  A    between atoms: _144  and  _145
REMARK   59  A    between atoms: _148  and  _150
REMARK   60  A    between atoms: _150  and  _151
REMARK   61  A    between atoms: _150  and  _153
REMARK   62  A    between atoms: _153  and  _154
REMARK   63  A    between atoms: _154  and  _155
REMARK   64  A    between atoms: _155  and  _156
REMARK   65  A    between atoms: _156  and  _157
REMARK   66  A    between atoms: _161  and  _163
REMARK   67  A    between atoms: _163  and  _164
REMARK   68  A    between atoms: _163  and  _166
REMARK   69  A    between atoms: _166  and  _167
REMARK   70  A    between atoms: _173  and  _174
REMARK   71  A    between atoms: _179  and  _181
REMARK   72  A    between atoms: _181  and  _182
REMARK   73  A    between atoms: _181  and  _184
REMARK   74  A    between atoms: _184  and  _185
REMARK   75  A    between atoms: _188  and  _190
REMARK   76  A    between atoms: _190  and  _191
REMARK   77  A    between atoms: _190  and  _193
REMARK   78  A    between atoms: _193  and  _194
REMARK   79  A    between atoms: _194  and  _195
REMARK   80  A    between atoms: _197  and  _199
REMARK   81  A    between atoms: _199  and  _200
REMARK   82  A    between atoms: _199  and  _202
REMARK   83  A    between atoms: _202  and  _203
REMARK   84  A    between atoms: _206  and  _208
REMARK   85  A    between atoms: _208  and  _209
REMARK   86  A    between atoms: _208  and  _211
REMARK   87  A    between atoms: _211  and  _212
REMARK   88  A    between atoms: _218  and  _220
REMARK   89  A    between atoms: _220  and  _221
REMARK   90  A    between atoms: _220  and  _223
REMARK   91  A    between atoms: _223  and  _224
REMARK   92  A    between atoms: _229  and  _231
REMARK   93  A    between atoms: _231  and  _232
REMARK   94  A    between atoms: _231  and  _234
REMARK   95  A    between atoms: _234  and  _235
REMARK   96  A    between atoms: _240  and  _242
REMARK   97  A    between atoms: _242  and  _243
REMARK   98  A    between atoms: _242  and  _245
REMARK   99  A    between atoms: _245  and  _246
REMARK  100  A    between atoms: _251  and  _252
REMARK  101  A    between atoms: _254  and  _256
REMARK  102  A    between atoms: _256  and  _257
REMARK  103  A    between atoms: _256  and  _259
REMARK  104  A    between atoms: _261  and  _263
REMARK  105  A    between atoms: _263  and  _264
REMARK  106  A    between atoms: _263  and  _266
REMARK  107  A    between atoms: _266  and  _267
REMARK  108  A    between atoms: _272  and  _273
REMARK  109  A    between atoms: _277  and  _280
REMARK  110  A    between atoms: _280  and  _281
REMARK  111  A    between atoms: _281  and  _354
REMARK  112  A    between atoms: _285  and  _287
REMARK  113  A    between atoms: _287  and  _289
REMARK  114  A    between atoms: _289  and  _290
REMARK  115  A    between atoms: _289  and  _292
REMARK  116  A    between atoms: _292  and  _293
REMARK  117  A    between atoms: _296  and  _298
REMARK  118  A    between atoms: _298  and  _299
REMARK  119  A    between atoms: _301  and  _303
REMARK  120  A    between atoms: _303  and  _304
REMARK  121  A    between atoms: _306  and  _308
REMARK  122  A    between atoms: _308  and  _309
REMARK  123  A    between atoms: _308  and  _311
REMARK  124  A    between atoms: _311  and  _312
REMARK  125  A    between atoms: _315  and  _317
REMARK  126  A    between atoms: _317  and  _318
REMARK  127  A    between atoms: _317  and  _320
REMARK  128  A    between atoms: _320  and  _321
REMARK  129  A    between atoms: _324  and  _326
REMARK  130  A    between atoms: _326  and  _327
REMARK  131  A    between atoms: _326  and  _329
REMARK  132  A    between atoms: _329  and  _330
REMARK  133  A    between atoms: _330  and  _331
REMARK  134  A    between atoms: _331  and  _332
REMARK  135  A    between atoms: _341  and  _343
REMARK  136  A    between atoms: _343  and  _344
REMARK  137  A    between atoms: _343  and  _346
REMARK  138  A    between atoms: _348  and  _350
REMARK  139  A    between atoms: _350  and  _351
REMARK  140  A    between atoms: _350  and  _353
REMARK  141  A    between atoms: _353  and  _354
REMARK  142  A    between atoms: _355  and  _357
REMARK  143  A    between atoms: _357  and  _358
REMARK  144  A    between atoms: _357  and  _360
REMARK  145  A    between atoms: _360  and  _361
REMARK  146  A    between atoms: _361  and  _362
REMARK  147  A    between atoms: _365  and  _367
REMARK  148  A    between atoms: _367  and  _368
REMARK  149  A    between atoms: _367  and  _370
REMARK  150  A    between atoms: _370  and  _371
REMARK  151  A    between atoms: _374  and  _376
REMARK  152  A    between atoms: _376  and  _377
REMARK  153  A    between atoms: _376  and  _379
REMARK  154  A    between atoms: _379  and  _380
REMARK  155  A    between atoms: _385  and  _387
REMARK  156  A    between atoms: _387  and  _388
REMARK  157  A    between atoms: _387  and  _390
REMARK  158  A    between atoms: _390  and  _391
REMARK  159  A    between atoms: _394  and  _396
REMARK  160  A    between atoms: _396  and  _397
REMARK  161  A    between atoms: _396  and  _399
REMARK  162  A    between atoms: _399  and  _400
REMARK  163  A    between atoms: _405  and  _407
REMARK  164  A    between atoms: _407  and  _408
REMARK  165  A    between atoms: _407  and  _410
REMARK  166  A    between atoms: _410  and  _411
REMARK  167  A    between atoms: _411  and  _480
REMARK  168  A    between atoms: _412  and  _414
REMARK  169  A    between atoms: _414  and  _415
REMARK  170  A    between atoms: _414  and  _417
REMARK  171  A    between atoms: _417  and  _418
REMARK  172  A    between atoms: _423  and  _424
REMARK  173  A    between atoms: _426  and  _428
REMARK  174  A    between atoms: _428  and  _429
REMARK  175  A    between atoms: _428  and  _431
REMARK  176  A    between atoms: _431  and  _432
REMARK  177  A    between atoms: _432  and  _433
REMARK  178  A    between atoms: _433  and  _434
REMARK  179  A    between atoms: _443  and  _445
REMARK  180  A    between atoms: _445  and  _446
REMARK  181  A    between atoms: _445  and  _448
REMARK  182  A    between atoms: _448  and  _449
REMARK  183  A    between atoms: _452  and  _454
REMARK  184  A    between atoms: _454  and  _455
REMARK  185  A    between atoms: _454  and  _457
REMARK  186  A    between atoms: _457  and  _458
REMARK  187  A    between atoms: _458  and  _459
REMARK  188  A    between atoms: _459  and  _460
REMARK  189  A    between atoms: _460  and  _461
REMARK  190  A    between atoms: _465  and  _467
REMARK  191  A    between atoms: _467  and  _468
REMARK  192  A    between atoms: _467  and  _470
REMARK  193  A    between atoms: _470  and  _471
REMARK  194  A    between atoms: _474  and  _476
REMARK  195  A    between atoms: _476  and  _477
REMARK  196  A    between atoms: _476  and  _479
REMARK  197  A    between atoms: _479  and  _480
REMARK  198  A    between atoms: _481  and  _483
REMARK  199  A    between atoms: _483  and  _484
REMARK  200  A    between atoms: _483  and  _486
REMARK  201  A    between atoms: _486  and  _487
REMARK  202  A    between atoms: _490  and  _492
REMARK  203  A    between atoms: _492  and  _493
REMARK  204  A    between atoms: _496  and  _498
REMARK  205  A    between atoms: _498  and  _499
REMARK  206  A    between atoms: _502  and  _504
REMARK  207  A    between atoms: _504  and  _505
REMARK  208  A    between atoms: _504  and  _507
REMARK  209  A    between atoms: _507  and  _508
REMARK  210  A    between atoms: _514  and  _516
REMARK  211  A    between atoms: _516  and  _517
REMARK  212  A    between atoms: _516  and  _519
REMARK  213  A    between atoms: _519  and  _520
REMARK  214  A    between atoms: _522  and  _524
REMARK  215  A    between atoms: _524  and  _525
REMARK  216  A    between atoms: _524  and  _527
REMARK  217  A    between atoms: _527  and  _528
REMARK  218  A    between atoms: _530  and  _532
REMARK  219  A    between atoms: _532  and  _533
REMARK  220  A    between atoms: _532  and  _535
REMARK  221  A    between atoms: _535  and  _536
REMARK  222  A    between atoms: _536  and  _537
REMARK  223  A    between atoms: _537  and  _538
REMARK  224  A    between atoms: _547  and  _549
REMARK  225  A    between atoms: _549  and  _550
REMARK  226  A    between atoms: _553  and  _555
REMARK  227  A    between atoms: _555  and  _556
REMARK  228  A    between atoms: _555  and  _558
REMARK  229  A    between atoms: _558  and  _559
REMARK  230  A    between atoms: _562  and  _564
REMARK  231  A    between atoms: _564  and  _565
REMARK  232  A    between atoms: _564  and  _567
REMARK  233  A    between atoms: _567  and  _568
REMARK  234  A    between atoms: _578  and  _580
REMARK  235  A    between atoms: _580  and  _581
REMARK  236  A    between atoms: _580  and  _583
REMARK  237  A    between atoms: _583  and  _584
REMARK  238  A    between atoms: _584  and  _585
REMARK  239  A    between atoms: _590  and  _592
REMARK  240  A    between atoms: _592  and  _593
REMARK  241  A    between atoms: _592  and  _595
REMARK  242  A    between atoms: _595  and  _596
REMARK  243  A    between atoms: _602  and  _604
REMARK  244  A    between atoms: _604  and  _605
REMARK  245  A    between atoms: _604  and  _607
REMARK  246  A    between atoms: _607  and  _608
REMARK  247  A    between atoms: _608  and  _609
REMARK  248  A    between atoms: _609  and  _610
REMARK  249  A    between atoms: _619  and  _621
REMARK  250  A    between atoms: _621  and  _622
REMARK  251  A    between atoms: _621  and  _624
REMARK  252  A    between atoms: _624  and  _625
REMARK  253  A    between atoms: _627  and  _629
REMARK  254  A    between atoms: _629  and  _630
REMARK  255  A    between atoms: _629  and  _632
REMARK  256  A    between atoms: _632  and  _633
REMARK  257  A    between atoms: _633  and  _634
REMARK  258  A    between atoms: _636  and  _638
REMARK  259  A    between atoms: _638  and  _639
REMARK  260  A    between atoms: _638  and  _641
REMARK  261  A    between atoms: _641  and  _642
REMARK  262  A    between atoms: _645  and  _647
REMARK  263  A    between atoms: _647  and  _648
REMARK  264  A    between atoms: _647  and  _650
REMARK  265  A    between atoms: _650  and  _651
REMARK  266  A    between atoms: _651  and  _652
REMARK  267  A    between atoms: _652  and  _653
REMARK  268  A    between atoms: _653  and  _654
REMARK  269  A    between atoms: _658  and  _660
REMARK  270  A    between atoms: _660  and  _661
REMARK  271  A    between atoms: _660  and  _663
REMARK  272  A    between atoms: _663  and  _664
REMARK  273  A    between atoms: _670  and  _671
REMARK  274  A    between atoms: _676  and  _678
REMARK  275  A    between atoms: _678  and  _679
REMARK  276  A    between atoms: _678  and  _681
REMARK  277  A    between atoms: _681  and  _682
REMARK  278  A    between atoms: _685  and  _687
REMARK  279  A    between atoms: _687  and  _688
REMARK  280  A    between atoms: _687  and  _690
REMARK  281  A    between atoms: _690  and  _691
REMARK  282  A    between atoms: _691  and  _692
REMARK  283  A    between atoms: _694  and  _696
REMARK  284  A    between atoms: _696  and  _697
REMARK  285  A    between atoms: _696  and  _699
REMARK  286  A    between atoms: _699  and  _700
REMARK  287  A    between atoms: _703  and  _705
REMARK  288  A    between atoms: _705  and  _706
REMARK  289  A    between atoms: _705  and  _708
REMARK  290  A    between atoms: _708  and  _709
REMARK  291  A    between atoms: _715  and  _717
REMARK  292  A    between atoms: _717  and  _718
REMARK  293  A    between atoms: _717  and  _720
REMARK  294  A    between atoms: _720  and  _721
REMARK  295  A    between atoms: _726  and  _728
REMARK  296  A    between atoms: _728  and  _729
REMARK  297  A    between atoms: _728  and  _731
REMARK  298  A    between atoms: _731  and  _732
REMARK  299  A    between atoms: _737  and  _739
REMARK  300  A    between atoms: _739  and  _740
REMARK  301  A    between atoms: _739  and  _742
REMARK  302  A    between atoms: _742  and  _743
REMARK  303  A    between atoms: _743  and  _755
REMARK  304  A    between atoms: _744  and  _746
REMARK  305  A    between atoms: _746  and  _747
REMARK  306  A    between atoms: _749  and  _751
REMARK  307  A    between atoms: _751  and  _752
REMARK  308  A    between atoms: _751  and  _754
REMARK  309  A    between atoms: _754  and  _755
REMARK  310  A    between atoms: _756  and  _758
REMARK  311  A    between atoms: _758  and  _759
REMARK  312  A    between atoms: _758  and  _761
REMARK  313  A    between atoms: _761  and  _762
REMARK  314  A    between atoms: _767  and  _769
REMARK  315  A    between atoms: _769  and  _770
REMARK  316  A    between atoms: _769  and  _772
REMARK  317  A    between atoms: _772  and  _773
REMARK  318  A    between atoms: _778  and  _779
REMARK  319  A    between atoms: _781  and  _783
REMARK  320  A    between atoms: _783  and  _784
REMARK  321  A    between atoms: _783  and  _786
REMARK  322  A    between atoms: _786  and  _787
REMARK                            x       y       z     vdW  Elec       q    Type
REMARK                         _______ _______ _______ _____ _____    ______ ____
ROOT
ATOM      1  O   HOH     1      18.838   6.417  22.931  0.00  0.00    +0.000 OA
ENDROOT
TORSDOF 0
REMARK  Name = ../refined-set-2016/1hn4/1hn4_pocket.pdb
REMARK  322 active torsions:
REMARK  status: ('A' for Active; 'I' for Inactive)
REMARK    1  A    between atoms: _1  and  _5
REMARK    2  A    between atoms: _5  and  _6
REMARK    3  A    between atoms: _8  and  _10
REMARK    4  A    between atoms: _10  and  _11
REMARK    5  A    between atoms: _10  and  _13
REMARK    6  A    between atoms: _13  and  _14
REMARK    7  A    between atoms: _17  and  _19
REMARK    8  A    between atoms: _19  and  _20
REMARK    9  A    between atoms: _19  and  _22
REMARK   10  A    between atoms: _22  and  _23
REMARK   11  A    between atoms: _25  and  _27
REMARK   12  A    between atoms: _27  and  _28
REMARK   13  A    between atoms: _27  and  _30
REMARK   14  A    between atoms: _30  and  _31
REMARK   15  A    between atoms: _33  and  _35
REMARK   16  A    between atoms: _35  and  _36
REMARK   17  A    between atoms: _35  and  _38
REMARK   18  A    between atoms: _38  and  _39
REMARK   19  A    between atoms: _39  and  _40
REMARK   20  A    between atoms: _40  and  _41
REMARK   21  A    between atoms: _50  and  _52
REMARK   22  A    between atoms: _52  and  _53
REMARK   23  A    between atoms: _56  and  _58
REMARK   24  A    between atoms: _58  and  _59
REMARK   25  A    between atoms: _58  and  _61
REMARK   26  A    between atoms: _61  and  _62
REMARK   27  A    between atoms: _65  and  _67
REMARK   28  A    between atoms: _67  and  _68
REMARK   29  A    between atoms: _67  and  _70
REMARK   30  A    between atoms: _70  and  _71
REMARK   31  A    between atoms: _81  and  _83
REMARK   32  A    between atoms: _83  and  _84
REMARK   33  A    between atoms: _83  and  _86
REMARK   34  A    between atoms: _86  and  _87
REMARK   35  A    between atoms: _87  and  _88
REMARK   36  A    between atoms: _93  and  _95
REMARK   37  A    between atoms: _95  and  _96
REMARK   38  A    between atoms: _95  and  _98
REMARK   39  A    between atoms: _98  and  _99
REMARK   40  A    between atoms: _105  and  _107
REMARK   41  A    between atoms: _107  and  _108
REMARK   42  A    between atoms: _107  and  _110
REMARK   43  A    between atoms: _110  and  _111
REMARK   44  A    between atoms: _111  and  _112
REMARK   45  A    between atoms: _112  and  _113
REMARK   46  A    between atoms: _122  and  _124
REMARK   47  A    between atoms: _124  and  _125
REMARK   48  A    between atoms: _124  and  _127
REMARK   49  A    between atoms: _127  and  _128
REMARK   50  A    between atoms: _130  and  _132
REMARK   51  A    between atoms: _132  and  _133
REMARK   52  A    between atoms: _132  and  _135
REMARK   53  A    between atoms: _135  and  _136
REMARK   54  A    between atoms: _136  and  _137
REMARK   55  A    between atoms: _139  and  _141
REMARK   56  A    between atoms: _141  and  _142
REMARK   57  A    between atoms: _141  and  _144
REMARK   58  A    between atoms: _144  and  _145
REMARK   59  A    between atoms: _148  and  _150
REMARK   60  A    between atoms: _150  and  _151
REMARK   61  A    between atoms: _150  and  _153
REMARK   62  A    between atoms: _153  and  _154
REMARK   63  A    between atoms: _154  and  _155
REMARK   64  A    between atoms: _155  and  _156
REMARK   65  A    between atoms: _156  and  _157
REMARK   66  A    between atoms: _161  and  _163
REMARK   67  A    between atoms: _163  and  _164
REMARK   68  A    between atoms: _163  and  _166
REMARK   69  A    between atoms: _166  and  _167
REMARK   70  A    between atoms: _173  and  _174
REMARK   71  A    between atoms: _179  and  _181
REMARK   72  A    between atoms: _181  and  _182
REMARK   73  A    between atoms: _181  and  _184
REMARK   74  A    between atoms: _184  and  _185
REMARK   75  A    between atoms: _188  and  _190
REMARK   76  A    between atoms: _190  and  _191
REMARK   77  A    between atoms: _190  and  _193
REMARK   78  A    between atoms: _193  and  _194
REMARK   79  A    between atoms: _194  and  _195
REMARK   80  A    between atoms: _197  and  _199
REMARK   81  A    between atoms: _199  and  _200
REMARK   82  A    between atoms: _199  and  _202
REMARK   83  A    between atoms: _202  and  _203
REMARK   84  A    between atoms: _206  and  _208
REMARK   85  A    between atoms: _208  and  _209
REMARK   86  A    between atoms: _208  and  _211
REMARK   87  A    between atoms: _211  and  _212
REMARK   88  A    between atoms: _218  and  _220
REMARK   89  A    between atoms: _220  and  _221
REMARK   90  A    between atoms: _220  and  _223
REMARK   91  A    between atoms: _223  and  _224
REMARK   92  A    between atoms: _229  and  _231
REMARK   93  A    between atoms: _231  and  _232
REMARK   94  A    between atoms: _231  and  _234
REMARK   95  A    between atoms: _234  and  _235
REMARK   96  A    between atoms: _240  and  _242
REMARK   97  A    between atoms: _242  and  _243
REMARK   98  A    between atoms: _242  and  _245
REMARK   99  A    between atoms: _245  and  _246
REMARK  100  A    between atoms: _251  and  _252
REMARK  101  A    between atoms: _254  and  _256
REMARK  102  A    between atoms: _256  and  _257
REMARK  103  A    between atoms: _256  and  _259
REMARK  104  A    between atoms: _261  and  _263
REMARK  105  A    between atoms: _263  and  _264
REMARK  106  A    between atoms: _263  and  _266
REMARK  107  A    between atoms: _266  and  _267
REMARK  108  A    between atoms: _272  and  _273
REMARK  109  A    between atoms: _277  and  _280
REMARK  110  A    between atoms: _280  and  _281
REMARK  111  A    between atoms: _281  and  _354
REMARK  112  A    between atoms: _285  and  _287
REMARK  113  A    between atoms: _287  and  _289
REMARK  114  A    between atoms: _289  and  _290
REMARK  115  A    between atoms: _289  and  _292
REMARK  116  A    between atoms: _292  and  _293
REMARK  117  A    between atoms: _296  and  _298
REMARK  118  A    between atoms: _298  and  _299
REMARK  119  A    between atoms: _301  and  _303
REMARK  120  A    between atoms: _303  and  _304
REMARK  121  A    between atoms: _306  and  _308
REMARK  122  A    between atoms: _308  and  _309
REMARK  123  A    between atoms: _308  and  _311
REMARK  124  A    between atoms: _311  and  _312
REMARK  125  A    between atoms: _315  and  _317
REMARK  126  A    between atoms: _317  and  _318
REMARK  127  A    between atoms: _317  and  _320
REMARK  128  A    between atoms: _320  and  _321
REMARK  129  A    between atoms: _324  and  _326
REMARK  130  A    between atoms: _326  and  _327
REMARK  131  A    between atoms: _326  and  _329
REMARK  132  A    between atoms: _329  and  _330
REMARK  133  A    between atoms: _330  and  _331
REMARK  134  A    between atoms: _331  and  _332
REMARK  135  A    between atoms: _341  and  _343
REMARK  136  A    between atoms: _343  and  _344
REMARK  137  A    between atoms: _343  and  _346
REMARK  138  A    between atoms: _348  and  _350
REMARK  139  A    between atoms: _350  and  _351
REMARK  140  A    between atoms: _350  and  _353
REMARK  141  A    between atoms: _353  and  _354
REMARK  142  A    between atoms: _355  and  _357
REMARK  143  A    between atoms: _357  and  _358
REMARK  144  A    between atoms: _357  and  _360
REMARK  145  A    between atoms: _360  and  _361
REMARK  146  A    between atoms: _361  and  _362
REMARK  147  A    between atoms: _365  and  _367
REMARK  148  A    between atoms: _367  and  _368
REMARK  149  A    between atoms: _367  and  _370
REMARK  150  A    between atoms: _370  and  _371
REMARK  151  A    between atoms: _374  and  _376
REMARK  152  A    between atoms: _376  and  _377
REMARK  153  A    between atoms: _376  and  _379
REMARK  154  A    between atoms: _379  and  _380
REMARK  155  A    between atoms: _385  and  _387
REMARK  156  A    between atoms: _387  and  _388
REMARK  157  A    between atoms: _387  and  _390
REMARK  158  A    between atoms: _390  and  _391
REMARK  159  A    between atoms: _394  and  _396
REMARK  160  A    between atoms: _396  and  _397
REMARK  161  A    between atoms: _396  and  _399
REMARK  162  A    between atoms: _399  and  _400
REMARK  163  A    between atoms: _405  and  _407
REMARK  164  A    between atoms: _407  and  _408
REMARK  165  A    between atoms: _407  and  _410
REMARK  166  A    between atoms: _410  and  _411
REMARK  167  A    between atoms: _411  and  _480
REMARK  168  A    between atoms: _412  and  _414
REMARK  169  A    between atoms: _414  and  _415
REMARK  170  A    between atoms: _414  and  _417
REMARK  171  A    between atoms: _417  and  _418
REMARK  172  A    between atoms: _423  and  _424
REMARK  173  A    between atoms: _426  and  _428
REMARK  174  A    between atoms: _428  and  _429
REMARK  175  A    between atoms: _428  and  _431
REMARK  176  A    between atoms: _431  and  _432
REMARK  177  A    between atoms: _432  and  _433
REMARK  178  A    between atoms: _433  and  _434
REMARK  179  A    between atoms: _443  and  _445
REMARK  180  A    between atoms: _445  and  _446
REMARK  181  A    between atoms: _445  and  _448
REMARK  182  A    between atoms: _448  and  _449
REMARK  183  A    between atoms: _452  and  _454
REMARK  184  A    between atoms: _454  and  _455
REMARK  185  A    between atoms: _454  and  _457
REMARK  186  A    between atoms: _457  and  _458
REMARK  187  A    between atoms: _458  and  _459
REMARK  188  A    between atoms: _459  and  _460
REMARK  189  A    between atoms: _460  and  _461
REMARK  190  A    between atoms: _465  and  _467
REMARK  191  A    between atoms: _467  and  _468
REMARK  192  A    between atoms: _467  and  _470
REMARK  193  A    between atoms: _470  and  _471
REMARK  194  A    between atoms: _474  and  _476
REMARK  195  A    between atoms: _476  and  _477
REMARK  196  A    between atoms: _476  and  _479
REMARK  197  A    between atoms: _479  and  _480
REMARK  198  A    between atoms: _481  and  _483
REMARK  199  A    between atoms: _483  and  _484
REMARK  200  A    between atoms: _483  and  _486
REMARK  201  A    between atoms: _486  and  _487
REMARK  202  A    between atoms: _490  and  _492
REMARK  203  A    between atoms: _492  and  _493
REMARK  204  A    between atoms: _496  and  _498
REMARK  205  A    between atoms: _498  and  _499
REMARK  206  A    between atoms: _502  and  _504
REMARK  207  A    between atoms: _504  and  _505
REMARK  208  A    between atoms: _504  and  _507
REMARK  209  A    between atoms: _507  and  _508
REMARK  210  A    between atoms: _514  and  _516
REMARK  211  A    between atoms: _516  and  _517
REMARK  212  A    between atoms: _516  and  _519
REMARK  213  A    between atoms: _519  and  _520
REMARK  214  A    between atoms: _522  and  _524
REMARK  215  A    between atoms: _524  and  _525
REMARK  216  A    between atoms: _524  and  _527
REMARK  217  A    between atoms: _527  and  _528
REMARK  218  A    between atoms: _530  and  _532
REMARK  219  A    between atoms: _532  and  _533
REMARK  220  A    between atoms: _532  and  _535
REMARK  221  A    between atoms: _535  and  _536
REMARK  222  A    between atoms: _536  and  _537
REMARK  223  A    between atoms: _537  and  _538
REMARK  224  A    between atoms: _547  and  _549
REMARK  225  A    between atoms: _549  and  _550
REMARK  226  A    between atoms: _553  and  _555
REMARK  227  A    between atoms: _555  and  _556
REMARK  228  A    between atoms: _555  and  _558
REMARK  229  A    between atoms: _558  and  _559
REMARK  230  A    between atoms: _562  and  _564
REMARK  231  A    between atoms: _564  and  _565
REMARK  232  A    between atoms: _564  and  _567
REMARK  233  A    between atoms: _567  and  _568
REMARK  234  A    between atoms: _578  and  _580
REMARK  235  A    between atoms: _580  and  _581
REMARK  236  A    between atoms: _580  and  _583
REMARK  237  A    between atoms: _583  and  _584
REMARK  238  A    between atoms: _584  and  _585
REMARK  239  A    between atoms: _590  and  _592
REMARK  240  A    between atoms: _592  and  _593
REMARK  241  A    between atoms: _592  and  _595
REMARK  242  A    between atoms: _595  and  _596
REMARK  243  A    between atoms: _602  and  _604
REMARK  244  A    between atoms: _604  and  _605
REMARK  245  A    between atoms: _604  and  _607
REMARK  246  A    between atoms: _607  and  _608
REMARK  247  A    between atoms: _608  and  _609
REMARK  248  A    between atoms: _609  and  _610
REMARK  249  A    between atoms: _619  and  _621
REMARK  250  A    between atoms: _621  and  _622
REMARK  251  A    between atoms: _621  and  _624
REMARK  252  A    between atoms: _624  and  _625
REMARK  253  A    between atoms: _627  and  _629
REMARK  254  A    between atoms: _629  and  _630
REMARK  255  A    between atoms: _629  and  _632
REMARK  256  A    between atoms: _632  and  _633
REMARK  257  A    between atoms: _633  and  _634
REMARK  258  A    between atoms: _636  and  _638
REMARK  259  A    between atoms: _638  and  _639
REMARK  260  A    between atoms: _638  and  _641
REMARK  261  A    between atoms: _641  and  _642
REMARK  262  A    between atoms: _645  and  _647
REMARK  263  A    between atoms: _647  and  _648
REMARK  264  A    between atoms: _647  and  _650
REMARK  265  A    between atoms: _650  and  _651
REMARK  266  A    between atoms: _651  and  _652
REMARK  267  A    between atoms: _652  and  _653
REMARK  268  A    between atoms: _653  and  _654
REMARK  269  A    between atoms: _658  and  _660
REMARK  270  A    between atoms: _660  and  _661
REMARK  271  A    between atoms: _660  and  _663
REMARK  272  A    between atoms: _663  and  _664
REMARK  273  A    between atoms: _670  and  _671
REMARK  274  A    between atoms: _676  and  _678
REMARK  275  A    between atoms: _678  and  _679
REMARK  276  A    between atoms: _678  and  _681
REMARK  277  A    between atoms: _681  and  _682
REMARK  278  A    between atoms: _685  and  _687
REMARK  279  A    between atoms: _687  and  _688
REMARK  280  A    between atoms: _687  and  _690
REMARK  281  A    between atoms: _690  and  _691
REMARK  282  A    between atoms: _691  and  _692
REMARK  283  A    between atoms: _694  and  _696
REMARK  284  A    between atoms: _696  and  _697
REMARK  285  A    between atoms: _696  and  _699
REMARK  286  A    between atoms: _699  and  _700
REMARK  287  A    between atoms: _703  and  _705
REMARK  288  A    between atoms: _705  and  _706
REMARK  289  A    between atoms: _705  and  _708
REMARK  290  A    between atoms: _708  and  _709
REMARK  291  A    between atoms: _715  and  _717
REMARK  292  A    between atoms: _717  and  _718
REMARK  293  A    between atoms: _717  and  _720
REMARK  294  A    between atoms: _720  and  _721
REMARK  295  A    between atoms: _726  and  _728
REMARK  296  A    between atoms: _728  and  _729
REMARK  297  A    between atoms: _728  and  _731
REMARK  298  A    between atoms: _731  and  _732
REMARK  299  A    between atoms: _737  and  _739
REMARK  300  A    between atoms: _739  and  _740
REMARK  301  A    between atoms: _739  and  _742
REMARK  302  A    between atoms: _742  and  _743
REMARK  303  A    between atoms: _743  and  _755
REMARK  304  A    between atoms: _744  and  _746
REMARK  305  A    between atoms: _746  and  _747
REMARK  306  A    between atoms: _749  and  _751
REMARK  307  A    between atoms: _751  and  _752
REMARK  308  A    between atoms: _751  and  _754
REMARK  309  A    between atoms: _754  and  _755
REMARK  310  A    between atoms: _756  and  _758
REMARK  311  A    between atoms: _758  and  _759
REMARK  312  A    between atoms: _758  and  _761
REMARK  313  A    between atoms: _761  and  _762
REMARK  314  A    between atoms: _767  and  _769
REMARK  315  A    between atoms: _769  and  _770
REMARK  316  A    between atoms: _769  and  _772
REMARK  317  A    between atoms: _772  and  _773
REMARK  318  A    between atoms: _778  and  _779
REMARK  319  A    between atoms: _781  and  _783
REMARK  320  A    between atoms: _783  and  _784
REMARK  321  A    between atoms: _783  and  _786
REMARK  322  A    between atoms: _786  and  _787
REMARK                            x       y       z     vdW  Elec       q    Type
REMARK                         _______ _______ _______ _____ _____    ______ ____
ROOT
ATOM      1  O   HOH     1      21.193   6.494  24.116  0.00  0.00    +0.000 OA
ENDROOT
TORSDOF 0
REMARK  Name = ../refined-set-2016/1hn4/1hn4_pocket.pdb
REMARK  322 active torsions:
REMARK  status: ('A' for Active; 'I' for Inactive)
REMARK    1  A    between atoms: _1  and  _5
REMARK    2  A    between atoms: _5  and  _6
REMARK    3  A    between atoms: _8  and  _10
REMARK    4  A    between atoms: _10  and  _11
REMARK    5  A    between atoms: _10  and  _13
REMARK    6  A    between atoms: _13  and  _14
REMARK    7  A    between atoms: _17  and  _19
REMARK    8  A    between atoms: _19  and  _20
REMARK    9  A    between atoms: _19  and  _22
REMARK   10  A    between atoms: _22  and  _23
REMARK   11  A    between atoms: _25  and  _27
REMARK   12  A    between atoms: _27  and  _28
REMARK   13  A    between atoms: _27  and  _30
REMARK   14  A    between atoms: _30  and  _31
REMARK   15  A    between atoms: _33  and  _35
REMARK   16  A    between atoms: _35  and  _36
REMARK   17  A    between atoms: _35  and  _38
REMARK   18  A    between atoms: _38  and  _39
REMARK   19  A    between atoms: _39  and  _40
REMARK   20  A    between atoms: _40  and  _41
REMARK   21  A    between atoms: _50  and  _52
REMARK   22  A    between atoms: _52  and  _53
REMARK   23  A    between atoms: _56  and  _58
REMARK   24  A    between atoms: _58  and  _59
REMARK   25  A    between atoms: _58  and  _61
REMARK   26  A    between atoms: _61  and  _62
REMARK   27  A    between atoms: _65  and  _67
REMARK   28  A    between atoms: _67  and  _68
REMARK   29  A    between atoms: _67  and  _70
REMARK   30  A    between atoms: _70  and  _71
REMARK   31  A    between atoms: _81  and  _83
REMARK   32  A    between atoms: _83  and  _84
REMARK   33  A    between atoms: _83  and  _86
REMARK   34  A    between atoms: _86  and  _87
REMARK   35  A    between atoms: _87  and  _88
REMARK   36  A    between atoms: _93  and  _95
REMARK   37  A    between atoms: _95  and  _96
REMARK   38  A    between atoms: _95  and  _98
REMARK   39  A    between atoms: _98  and  _99
REMARK   40  A    between atoms: _105  and  _107
REMARK   41  A    between atoms: _107  and  _108
REMARK   42  A    between atoms: _107  and  _110
REMARK   43  A    between atoms: _110  and  _111
REMARK   44  A    between atoms: _111  and  _112
REMARK   45  A    between atoms: _112  and  _113
REMARK   46  A    between atoms: _122  and  _124
REMARK   47  A    between atoms: _124  and  _125
REMARK   48  A    between atoms: _124  and  _127
REMARK   49  A    between atoms: _127  and  _128
REMARK   50  A    between atoms: _130  and  _132
REMARK   51  A    between atoms: _132  and  _133
REMARK   52  A    between atoms: _132  and  _135
REMARK   53  A    between atoms: _135  and  _136
REMARK   54  A    between atoms: _136  and  _137
REMARK   55  A    between atoms: _139  and  _141
REMARK   56  A    between atoms: _141  and  _142
REMARK   57  A    between atoms: _141  and  _144
REMARK   58  A    between atoms: _144  and  _145
REMARK   59  A    between atoms: _148  and  _150
REMARK   60  A    between atoms: _150  and  _151
REMARK   61  A    between atoms: _150  and  _153
REMARK   62  A    between atoms: _153  and  _154
REMARK   63  A    between atoms: _154  and  _155
REMARK   64  A    between atoms: _155  and  _156
REMARK   65  A    between atoms: _156  and  _157
REMARK   66  A    between atoms: _161  and  _163
REMARK   67  A    between atoms: _163  and  _164
REMARK   68  A    between atoms: _163  and  _166
REMARK   69  A    between atoms: _166  and  _167
REMARK   70  A    between atoms: _173  and  _174
REMARK   71  A    between atoms: _179  and  _181
REMARK   72  A    between atoms: _181  and  _182
REMARK   73  A    between atoms: _181  and  _184
REMARK   74  A    between atoms: _184  and  _185
REMARK   75  A    between atoms: _188  and  _190
REMARK   76  A    between atoms: _190  and  _191
REMARK   77  A    between atoms: _190  and  _193
REMARK   78  A    between atoms: _193  and  _194
REMARK   79  A    between atoms: _194  and  _195
REMARK   80  A    between atoms: _197  and  _199
REMARK   81  A    between atoms: _199  and  _200
REMARK   82  A    between atoms: _199  and  _202
REMARK   83  A    between atoms: _202  and  _203
REMARK   84  A    between atoms: _206  and  _208
REMARK   85  A    between atoms: _208  and  _209
REMARK   86  A    between atoms: _208  and  _211
REMARK   87  A    between atoms: _211  and  _212
REMARK   88  A    between atoms: _218  and  _220
REMARK   89  A    between atoms: _220  and  _221
REMARK   90  A    between atoms: _220  and  _223
REMARK   91  A    between atoms: _223  and  _224
REMARK   92  A    between atoms: _229  and  _231
REMARK   93  A    between atoms: _231  and  _232
REMARK   94  A    between atoms: _231  and  _234
REMARK   95  A    between atoms: _234  and  _235
REMARK   96  A    between atoms: _240  and  _242
REMARK   97  A    between atoms: _242  and  _243
REMARK   98  A    between atoms: _242  and  _245
REMARK   99  A    between atoms: _245  and  _246
REMARK  100  A    between atoms: _251  and  _252
REMARK  101  A    between atoms: _254  and  _256
REMARK  102  A    between atoms: _256  and  _257
REMARK  103  A    between atoms: _256  and  _259
REMARK  104  A    between atoms: _261  and  _263
REMARK  105  A    between atoms: _263  and  _264
REMARK  106  A    between atoms: _263  and  _266
REMARK  107  A    between atoms: _266  and  _267
REMARK  108  A    between atoms: _272  and  _273
REMARK  109  A    between atoms: _277  and  _280
REMARK  110  A    between atoms: _280  and  _281
REMARK  111  A    between atoms: _281  and  _354
REMARK  112  A    between atoms: _285  and  _287
REMARK  113  A    between atoms: _287  and  _289
REMARK  114  A    between atoms: _289  and  _290
REMARK  115  A    between atoms: _289  and  _292
REMARK  116  A    between atoms: _292  and  _293
REMARK  117  A    between atoms: _296  and  _298
REMARK  118  A    between atoms: _298  and  _299
REMARK  119  A    between atoms: _301  and  _303
REMARK  120  A    between atoms: _303  and  _304
REMARK  121  A    between atoms: _306  and  _308
REMARK  122  A    between atoms: _308  and  _309
REMARK  123  A    between atoms: _308  and  _311
REMARK  124  A    between atoms: _311  and  _312
REMARK  125  A    between atoms: _315  and  _317
REMARK  126  A    between atoms: _317  and  _318
REMARK  127  A    between atoms: _317  and  _320
REMARK  128  A    between atoms: _320  and  _321
REMARK  129  A    between atoms: _324  and  _326
REMARK  130  A    between atoms: _326  and  _327
REMARK  131  A    between atoms: _326  and  _329
REMARK  132  A    between atoms: _329  and  _330
REMARK  133  A    between atoms: _330  and  _331
REMARK  134  A    between atoms: _331  and  _332
REMARK  135  A    between atoms: _341  and  _343
REMARK  136  A    between atoms: _343  and  _344
REMARK  137  A    between atoms: _343  and  _346
REMARK  138  A    between atoms: _348  and  _350
REMARK  139  A    between atoms: _350  and  _351
REMARK  140  A    between atoms: _350  and  _353
REMARK  141  A    between atoms: _353  and  _354
REMARK  142  A    between atoms: _355  and  _357
REMARK  143  A    between atoms: _357  and  _358
REMARK  144  A    between atoms: _357  and  _360
REMARK  145  A    between atoms: _360  and  _361
REMARK  146  A    between atoms: _361  and  _362
REMARK  147  A    between atoms: _365  and  _367
REMARK  148  A    between atoms: _367  and  _368
REMARK  149  A    between atoms: _367  and  _370
REMARK  150  A    between atoms: _370  and  _371
REMARK  151  A    between atoms: _374  and  _376
REMARK  152  A    between atoms: _376  and  _377
REMARK  153  A    between atoms: _376  and  _379
REMARK  154  A    between atoms: _379  and  _380
REMARK  155  A    between atoms: _385  and  _387
REMARK  156  A    between atoms: _387  and  _388
REMARK  157  A    between atoms: _387  and  _390
REMARK  158  A    between atoms: _390  and  _391
REMARK  159  A    between atoms: _394  and  _396
REMARK  160  A    between atoms: _396  and  _397
REMARK  161  A    between atoms: _396  and  _399
REMARK  162  A    between atoms: _399  and  _400
REMARK  163  A    between atoms: _405  and  _407
REMARK  164  A    between atoms: _407  and  _408
REMARK  165  A    between atoms: _407  and  _410
REMARK  166  A    between atoms: _410  and  _411
REMARK  167  A    between atoms: _411  and  _480
REMARK  168  A    between atoms: _412  and  _414
REMARK  169  A    between atoms: _414  and  _415
REMARK  170  A    between atoms: _414  and  _417
REMARK  171  A    between atoms: _417  and  _418
REMARK  172  A    between atoms: _423  and  _424
REMARK  173  A    between atoms: _426  and  _428
REMARK  174  A    between atoms: _428  and  _429
REMARK  175  A    between atoms: _428  and  _431
REMARK  176  A    between atoms: _431  and  _432
REMARK  177  A    between atoms: _432  and  _433
REMARK  178  A    between atoms: _433  and  _434
REMARK  179  A    between atoms: _443  and  _445
REMARK  180  A    between atoms: _445  and  _446
REMARK  181  A    between atoms: _445  and  _448
REMARK  182  A    between atoms: _448  and  _449
REMARK  183  A    between atoms: _452  and  _454
REMARK  184  A    between atoms: _454  and  _455
REMARK  185  A    between atoms: _454  and  _457
REMARK  186  A    between atoms: _457  and  _458
REMARK  187  A    between atoms: _458  and  _459
REMARK  188  A    between atoms: _459  and  _460
REMARK  189  A    between atoms: _460  and  _461
REMARK  190  A    between atoms: _465  and  _467
REMARK  191  A    between atoms: _467  and  _468
REMARK  192  A    between atoms: _467  and  _470
REMARK  193  A    between atoms: _470  and  _471
REMARK  194  A    between atoms: _474  and  _476
REMARK  195  A    between atoms: _476  and  _477
REMARK  196  A    between atoms: _476  and  _479
REMARK  197  A    between atoms: _479  and  _480
REMARK  198  A    between atoms: _481  and  _483
REMARK  199  A    between atoms: _483  and  _484
REMARK  200  A    between atoms: _483  and  _486
REMARK  201  A    between atoms: _486  and  _487
REMARK  202  A    between atoms: _490  and  _492
REMARK  203  A    between atoms: _492  and  _493
REMARK  204  A    between atoms: _496  and  _498
REMARK  205  A    between atoms: _498  and  _499
REMARK  206  A    between atoms: _502  and  _504
REMARK  207  A    between atoms: _504  and  _505
REMARK  208  A    between atoms: _504  and  _507
REMARK  209  A    between atoms: _507  and  _508
REMARK  210  A    between atoms: _514  and  _516
REMARK  211  A    between atoms: _516  and  _517
REMARK  212  A    between atoms: _516  and  _519
REMARK  213  A    between atoms: _519  and  _520
REMARK  214  A    between atoms: _522  and  _524
REMARK  215  A    between atoms: _524  and  _525
REMARK  216  A    between atoms: _524  and  _527
REMARK  217  A    between atoms: _527  and  _528
REMARK  218  A    between atoms: _530  and  _532
REMARK  219  A    between atoms: _532  and  _533
REMARK  220  A    between atoms: _532  and  _535
REMARK  221  A    between atoms: _535  and  _536
REMARK  222  A    between atoms: _536  and  _537
REMARK  223  A    between atoms: _537  and  _538
REMARK  224  A    between atoms: _547  and  _549
REMARK  225  A    between atoms: _549  and  _550
REMARK  226  A    between atoms: _553  and  _555
REMARK  227  A    between atoms: _555  and  _556
REMARK  228  A    between atoms: _555  and  _558
REMARK  229  A    between atoms: _558  and  _559
REMARK  230  A    between atoms: _562  and  _564
REMARK  231  A    between atoms: _564  and  _565
REMARK  232  A    between atoms: _564  and  _567
REMARK  233  A    between atoms: _567  and  _568
REMARK  234  A    between atoms: _578  and  _580
REMARK  235  A    between atoms: _580  and  _581
REMARK  236  A    between atoms: _580  and  _583
REMARK  237  A    between atoms: _583  and  _584
REMARK  238  A    between atoms: _584  and  _585
REMARK  239  A    between atoms: _590  and  _592
REMARK  240  A    between atoms: _592  and  _593
REMARK  241  A    between atoms: _592  and  _595
REMARK  242  A    between atoms: _595  and  _596
REMARK  243  A    between atoms: _602  and  _604
REMARK  244  A    between atoms: _604  and  _605
REMARK  245  A    between atoms: _604  and  _607
REMARK  246  A    between atoms: _607  and  _608
REMARK  247  A    between atoms: _608  and  _609
REMARK  248  A    between atoms: _609  and  _610
REMARK  249  A    between atoms: _619  and  _621
REMARK  250  A    between atoms: _621  and  _622
REMARK  251  A    between atoms: _621  and  _624
REMARK  252  A    between atoms: _624  and  _625
REMARK  253  A    between atoms: _627  and  _629
REMARK  254  A    between atoms: _629  and  _630
REMARK  255  A    between atoms: _629  and  _632
REMARK  256  A    between atoms: _632  and  _633
REMARK  257  A    between atoms: _633  and  _634
REMARK  258  A    between atoms: _636  and  _638
REMARK  259  A    between atoms: _638  and  _639
REMARK  260  A    between atoms: _638  and  _641
REMARK  261  A    between atoms: _641  and  _642
REMARK  262  A    between atoms: _645  and  _647
REMARK  263  A    between atoms: _647  and  _648
REMARK  264  A    between atoms: _647  and  _650
REMARK  265  A    between atoms: _650  and  _651
REMARK  266  A    between atoms: _651  and  _652
REMARK  267  A    between atoms: _652  and  _653
REMARK  268  A    between atoms: _653  and  _654
REMARK  269  A    between atoms: _658  and  _660
REMARK  270  A    between atoms: _660  and  _661
REMARK  271  A    between atoms: _660  and  _663
REMARK  272  A    between atoms: _663  and  _664
REMARK  273  A    between atoms: _670  and  _671
REMARK  274  A    between atoms: _676  and  _678
REMARK  275  A    between atoms: _678  and  _679
REMARK  276  A    between atoms: _678  and  _681
REMARK  277  A    between atoms: _681  and  _682
REMARK  278  A    between atoms: _685  and  _687
REMARK  279  A    between atoms: _687  and  _688
REMARK  280  A    between atoms: _687  and  _690
REMARK  281  A    between atoms: _690  and  _691
REMARK  282  A    between atoms: _691  and  _692
REMARK  283  A    between atoms: _694  and  _696
REMARK  284  A    between atoms: _696  and  _697
REMARK  285  A    between atoms: _696  and  _699
REMARK  286  A    between atoms: _699  and  _700
REMARK  287  A    between atoms: _703  and  _705
REMARK  288  A    between atoms: _705  and  _706
REMARK  289  A    between atoms: _705  and  _708
REMARK  290  A    between atoms: _708  and  _709
REMARK  291  A    between atoms: _715  and  _717
REMARK  292  A    between atoms: _717  and  _718
REMARK  293  A    between atoms: _717  and  _720
REMARK  294  A    between atoms: _720  and  _721
REMARK  295  A    between atoms: _726  and  _728
REMARK  296  A    between atoms: _728  and  _729
REMARK  297  A    between atoms: _728  and  _731
REMARK  298  A    between atoms: _731  and  _732
REMARK  299  A    between atoms: _737  and  _739
REMARK  300  A    between atoms: _739  and  _740
REMARK  301  A    between atoms: _739  and  _742
REMARK  302  A    between atoms: _742  and  _743
REMARK  303  A    between atoms: _743  and  _755
REMARK  304  A    between atoms: _744  and  _746
REMARK  305  A    between atoms: _746  and  _747
REMARK  306  A    between atoms: _749  and  _751
REMARK  307  A    between atoms: _751  and  _752
REMARK  308  A    between atoms: _751  and  _754
REMARK  309  A    between atoms: _754  and  _755
REMARK  310  A    between atoms: _756  and  _758
REMARK  311  A    between atoms: _758  and  _759
REMARK  312  A    between atoms: _758  and  _761
REMARK  313  A    between atoms: _761  and  _762
REMARK  314  A    between atoms: _767  and  _769
REMARK  315  A    between atoms: _769  and  _770
REMARK  316  A    between atoms: _769  and  _772
REMARK  317  A    between atoms: _772  and  _773
REMARK  318  A    between atoms: _778  and  _779
REMARK  319  A    between atoms: _781  and  _783
REMARK  320  A    between atoms: _783  and  _784
REMARK  321  A    between atoms: _783  and  _786
REMARK  322  A    between atoms: _786  and  _787
REMARK                            x       y       z     vdW  Elec       q    Type
REMARK                         _______ _______ _______ _____ _____    ______ ____
ROOT
ATOM      1  O   HOH     1      19.241   8.804  23.887  0.00  0.00    +0.000 OA
ENDROOT
TORSDOF 0
