REMARK  Name = ../refined-set-2016/1ydt/1ydt_pocket.pdb
REMARK  261 active torsions:
REMARK  status: ('A' for Active; 'I' for Inactive)
REMARK    1  A    between atoms: _1  and  _3
REMARK    2  A    between atoms: _3  and  _4
REMARK    3  A    between atoms: _3  and  _6
REMARK    4  A    between atoms: _6  and  _7
REMARK    5  A    between atoms: _7  and  _8
REMARK    6  A    between atoms: _8  and  _9
REMARK    7  A    between atoms: _9  and  _10
REMARK    8  A    between atoms: _14  and  _16
REMARK    9  A    between atoms: _16  and  _17
REMARK   10  A    between atoms: _16  and  _19
REMARK   11  A    between atoms: _19  and  _20
REMARK   12  A    between atoms: _23  and  _25
REMARK   13  A    between atoms: _25  and  _26
REMARK   14  A    between atoms: _25  and  _28
REMARK   15  A    between atoms: _28  and  _29
REMARK   16  A    between atoms: _32  and  _34
REMARK   17  A    between atoms: _34  and  _35
REMARK   18  A    between atoms: _37  and  _39
REMARK   19  A    between atoms: _39  and  _40
REMARK   20  A    between atoms: _39  and  _42
REMARK   21  A    between atoms: _42  and  _43
REMARK   22  A    between atoms: _46  and  _48
REMARK   23  A    between atoms: _48  and  _49
REMARK   24  A    between atoms: _51  and  _53
REMARK   25  A    between atoms: _53  and  _54
REMARK   26  A    between atoms: _53  and  _56
REMARK   27  A    between atoms: _56  and  _57
REMARK   28  A    between atoms: _59  and  _61
REMARK   29  A    between atoms: _61  and  _62
REMARK   30  A    between atoms: _61  and  _64
REMARK   31  A    between atoms: _64  and  _65
REMARK   32  A    between atoms: _71  and  _73
REMARK   33  A    between atoms: _73  and  _74
REMARK   34  A    between atoms: _76  and  _78
REMARK   35  A    between atoms: _78  and  _79
REMARK   36  A    between atoms: _78  and  _81
REMARK   37  A    between atoms: _81  and  _82
REMARK   38  A    between atoms: _82  and  _83
REMARK   39  A    between atoms: _83  and  _84
REMARK   40  A    between atoms: _93  and  _95
REMARK   41  A    between atoms: _95  and  _96
REMARK   42  A    between atoms: _95  and  _98
REMARK   43  A    between atoms: _101  and  _103
REMARK   44  A    between atoms: _103  and  _104
REMARK   45  A    between atoms: _103  and  _106
REMARK   46  A    between atoms: _106  and  _107
REMARK   47  A    between atoms: _107  and  _108
REMARK   48  A    between atoms: _110  and  _112
REMARK   49  A    between atoms: _112  and  _113
REMARK   50  A    between atoms: _112  and  _115
REMARK   51  A    between atoms: _115  and  _116
REMARK   52  A    between atoms: _119  and  _121
REMARK   53  A    between atoms: _121  and  _122
REMARK   54  A    between atoms: _121  and  _124
REMARK   55  A    between atoms: _124  and  _125
REMARK   56  A    between atoms: _130  and  _131
REMARK   57  A    between atoms: _133  and  _135
REMARK   58  A    between atoms: _135  and  _136
REMARK   59  A    between atoms: _139  and  _141
REMARK   60  A    between atoms: _141  and  _142
REMARK   61  A    between atoms: _141  and  _144
REMARK   62  A    between atoms: _144  and  _145
REMARK   63  A    between atoms: _145  and  _146
REMARK   64  A    between atoms: _148  and  _150
REMARK   65  A    between atoms: _150  and  _151
REMARK   66  A    between atoms: _150  and  _153
REMARK   67  A    between atoms: _153  and  _154
REMARK   68  A    between atoms: _154  and  _155
REMARK   69  A    between atoms: _155  and  _156
REMARK   70  A    between atoms: _156  and  _157
REMARK   71  A    between atoms: _161  and  _163
REMARK   72  A    between atoms: _163  and  _164
REMARK   73  A    between atoms: _163  and  _166
REMARK   74  A    between atoms: _166  and  _167
REMARK   75  A    between atoms: _170  and  _172
REMARK   76  A    between atoms: _172  and  _173
REMARK   77  A    between atoms: _172  and  _175
REMARK   78  A    between atoms: _175  and  _176
REMARK   79  A    between atoms: _179  and  _181
REMARK   80  A    between atoms: _181  and  _182
REMARK   81  A    between atoms: _181  and  _184
REMARK   82  A    between atoms: _184  and  _185
REMARK   83  A    between atoms: _188  and  _190
REMARK   84  A    between atoms: _190  and  _191
REMARK   85  A    between atoms: _190  and  _193
REMARK   86  A    between atoms: _196  and  _198
REMARK   87  A    between atoms: _198  and  _199
REMARK   88  A    between atoms: _198  and  _201
REMARK   89  A    between atoms: _201  and  _202
REMARK   90  A    between atoms: _205  and  _207
REMARK   91  A    between atoms: _207  and  _208
REMARK   92  A    between atoms: _207  and  _210
REMARK   93  A    between atoms: _210  and  _211
REMARK   94  A    between atoms: _211  and  _212
REMARK   95  A    between atoms: _215  and  _217
REMARK   96  A    between atoms: _217  and  _218
REMARK   97  A    between atoms: _217  and  _220
REMARK   98  A    between atoms: _220  and  _221
REMARK   99  A    between atoms: _224  and  _226
REMARK  100  A    between atoms: _226  and  _227
REMARK  101  A    between atoms: _226  and  _229
REMARK  102  A    between atoms: _232  and  _234
REMARK  103  A    between atoms: _234  and  _235
REMARK  104  A    between atoms: _234  and  _237
REMARK  105  A    between atoms: _237  and  _238
REMARK  106  A    between atoms: _238  and  _239
REMARK  107  A    between atoms: _239  and  _240
REMARK  108  A    between atoms: _240  and  _241
REMARK  109  A    between atoms: _245  and  _247
REMARK  110  A    between atoms: _247  and  _248
REMARK  111  A    between atoms: _247  and  _250
REMARK  112  A    between atoms: _250  and  _251
REMARK  113  A    between atoms: _254  and  _256
REMARK  114  A    between atoms: _256  and  _257
REMARK  115  A    between atoms: _256  and  _259
REMARK  116  A    between atoms: _259  and  _260
REMARK  117  A    between atoms: _260  and  _261
REMARK  118  A    between atoms: _263  and  _265
REMARK  119  A    between atoms: _265  and  _266
REMARK  120  A    between atoms: _265  and  _268
REMARK  121  A    between atoms: _271  and  _273
REMARK  122  A    between atoms: _273  and  _274
REMARK  123  A    between atoms: _273  and  _276
REMARK  124  A    between atoms: _276  and  _277
REMARK  125  A    between atoms: _277  and  _278
REMARK  126  A    between atoms: _280  and  _282
REMARK  127  A    between atoms: _282  and  _283
REMARK  128  A    between atoms: _282  and  _285
REMARK  129  A    between atoms: _285  and  _286
REMARK  130  A    between atoms: _286  and  _287
REMARK  131  A    between atoms: _290  and  _292
REMARK  132  A    between atoms: _292  and  _293
REMARK  133  A    between atoms: _292  and  _295
REMARK  134  A    between atoms: _295  and  _296
REMARK  135  A    between atoms: _301  and  _302
REMARK  136  A    between atoms: _304  and  _306
REMARK  137  A    between atoms: _306  and  _307
REMARK  138  A    between atoms: _306  and  _309
REMARK  139  A    between atoms: _312  and  _314
REMARK  140  A    between atoms: _314  and  _315
REMARK  141  A    between atoms: _318  and  _320
REMARK  142  A    between atoms: _320  and  _321
REMARK  143  A    between atoms: _323  and  _325
REMARK  144  A    between atoms: _325  and  _326
REMARK  145  A    between atoms: _328  and  _330
REMARK  146  A    between atoms: _330  and  _331
REMARK  147  A    between atoms: _330  and  _333
REMARK  148  A    between atoms: _333  and  _334
REMARK  149  A    between atoms: _334  and  _335
REMARK  150  A    between atoms: _338  and  _340
REMARK  151  A    between atoms: _340  and  _341
REMARK  152  A    between atoms: _340  and  _343
REMARK  153  A    between atoms: _343  and  _344
REMARK  154  A    between atoms: _344  and  _345
REMARK  155  A    between atoms: _347  and  _349
REMARK  156  A    between atoms: _349  and  _350
REMARK  157  A    between atoms: _349  and  _352
REMARK  158  A    between atoms: _352  and  _353
REMARK  159  A    between atoms: _359  and  _361
REMARK  160  A    between atoms: _361  and  _362
REMARK  161  A    between atoms: _361  and  _364
REMARK  162  A    between atoms: _364  and  _365
REMARK  163  A    between atoms: _370  and  _371
REMARK  164  A    between atoms: _373  and  _375
REMARK  165  A    between atoms: _375  and  _376
REMARK  166  A    between atoms: _375  and  _378
REMARK  167  A    between atoms: _378  and  _379
REMARK  168  A    between atoms: _382  and  _384
REMARK  169  A    between atoms: _384  and  _385
REMARK  170  A    between atoms: _384  and  _387
REMARK  171  A    between atoms: _387  and  _388
REMARK  172  A    between atoms: _388  and  _389
REMARK  173  A    between atoms: _389  and  _390
REMARK  174  A    between atoms: _390  and  _391
REMARK  175  A    between atoms: _396  and  _397
REMARK  176  A    between atoms: _402  and  _404
REMARK  177  A    between atoms: _404  and  _405
REMARK  178  A    between atoms: _404  and  _407
REMARK  179  A    between atoms: _407  and  _408
REMARK  180  A    between atoms: _408  and  _409
REMARK  181  A    between atoms: _412  and  _414
REMARK  182  A    between atoms: _414  and  _415
REMARK  183  A    between atoms: _414  and  _417
REMARK  184  A    between atoms: _417  and  _418
REMARK  185  A    between atoms: _423  and  _425
REMARK  186  A    between atoms: _425  and  _426
REMARK  187  A    between atoms: _425  and  _428
REMARK  188  A    between atoms: _428  and  _429
REMARK  189  A    between atoms: _432  and  _434
REMARK  190  A    between atoms: _434  and  _435
REMARK  191  A    between atoms: _434  and  _437
REMARK  192  A    between atoms: _437  and  _438
REMARK  193  A    between atoms: _441  and  _443
REMARK  194  A    between atoms: _443  and  _444
REMARK  195  A    between atoms: _443  and  _446
REMARK  196  A    between atoms: _446  and  _447
REMARK  197  A    between atoms: _450  and  _452
REMARK  198  A    between atoms: _452  and  _453
REMARK  199  A    between atoms: _452  and  _455
REMARK  200  A    between atoms: _455  and  _456
REMARK  201  A    between atoms: _459  and  _461
REMARK  202  A    between atoms: _461  and  _462
REMARK  203  A    between atoms: _461  and  _464
REMARK  204  A    between atoms: _464  and  _465
REMARK  205  A    between atoms: _465  and  _466
REMARK  206  A    between atoms: _471  and  _473
REMARK  207  A    between atoms: _473  and  _474
REMARK  208  A    between atoms: _473  and  _476
REMARK  209  A    between atoms: _479  and  _481
REMARK  210  A    between atoms: _481  and  _482
REMARK  211  A    between atoms: _481  and  _484
REMARK  212  A    between atoms: _484  and  _485
REMARK  213  A    between atoms: _488  and  _490
REMARK  214  A    between atoms: _490  and  _491
REMARK  215  A    between atoms: _490  and  _493
REMARK  216  A    between atoms: _493  and  _494
REMARK  217  A    between atoms: _497  and  _499
REMARK  218  A    between atoms: _499  and  _500
REMARK  219  A    between atoms: _499  and  _502
REMARK  220  A    between atoms: _502  and  _503
REMARK  221  A    between atoms: _509  and  _511
REMARK  222  A    between atoms: _511  and  _512
REMARK  223  A    between atoms: _514  and  _516
REMARK  224  A    between atoms: _516  and  _517
REMARK  225  A    between atoms: _516  and  _519
REMARK  226  A    between atoms: _519  and  _520
REMARK  227  A    between atoms: _523  and  _525
REMARK  228  A    between atoms: _525  and  _526
REMARK  229  A    between atoms: _525  and  _528
REMARK  230  A    between atoms: _528  and  _529
REMARK  231  A    between atoms: _534  and  _536
REMARK  232  A    between atoms: _536  and  _537
REMARK  233  A    between atoms: _536  and  _539
REMARK  234  A    between atoms: _539  and  _540
REMARK  235  A    between atoms: _546  and  _548
REMARK  236  A    between atoms: _548  and  _549
REMARK  237  A    between atoms: _548  and  _551
REMARK  238  A    between atoms: _551  and  _552
REMARK  239  A    between atoms: _555  and  _557
REMARK  240  A    between atoms: _557  and  _558
REMARK  241  A    between atoms: _557  and  _560
REMARK  242  A    between atoms: _560  and  _561
REMARK  243  A    between atoms: _566  and  _567
REMARK  244  A    between atoms: _569  and  _571
REMARK  245  A    between atoms: _571  and  _572
REMARK  246  A    between atoms: _571  and  _574
REMARK  247  A    between atoms: _574  and  _575
REMARK  248  A    between atoms: _575  and  _576
REMARK  249  A    between atoms: _576  and  _577
REMARK  250  A    between atoms: _586  and  _588
REMARK  251  A    between atoms: _588  and  _589
REMARK  252  A    between atoms: _588  and  _591
REMARK  253  A    between atoms: _591  and  _592
REMARK  254  A    between atoms: _592  and  _593
REMARK  255  A    between atoms: _593  and  _594
REMARK  256  A    between atoms: _603  and  _605
REMARK  257  A    between atoms: _605  and  _606
REMARK  258  A    between atoms: _605  and  _608
REMARK  259  A    between atoms: _608  and  _609
REMARK  260  A    between atoms: _614  and  _616
REMARK  261  A    between atoms: _616  and  _617
REMARK                            x       y       z     vdW  Elec       q    Type
REMARK                         _______ _______ _______ _____ _____    ______ ____
ROOT
ATOM      1  C   SER A   7      19.644  15.764  -0.787  0.00  0.00    +0.243 C 
ATOM      2  O   SER A   7      20.423  16.689  -0.696  0.00  0.00    -0.273 OA
ATOM      3  N   PHE A   8      18.451  15.913  -1.343  0.00  0.00    -0.297 N 
ATOM      4  H   PHE A   8      17.777  15.121  -1.374  0.00  0.00    +0.150 HD
ENDROOT
BRANCH   1   5
ATOM      5  CA  SER A   7      20.013  14.401  -0.239  0.00  0.00    +0.178 C 
BRANCH   5   8
ATOM      6  C   GLY A   6      18.114  14.325   1.309  0.00  0.00    +0.243 C 
ATOM      7  O   GLY A   6      18.086  15.542   1.456  0.00  0.00    -0.273 OA
ATOM      8  N   SER A   7      18.954  13.706   0.487  0.00  0.00    -0.295 N 
ATOM      9  H   SER A   7      18.853  12.679   0.355  0.00  0.00    +0.150 HD
BRANCH   6  10
ATOM     10  CA  GLY A   6      17.096  13.447   1.990  0.00  0.00    +0.176 C 
BRANCH  10  13
ATOM     11  C   THR A   5      15.593  13.402   3.838  0.00  0.00    +0.243 C 
ATOM     12  O   THR A   5      15.514  12.175   3.723  0.00  0.00    -0.273 OA
ATOM     13  N   GLY A   6      16.311  14.127   2.995  0.00  0.00    -0.295 N 
ATOM     14  H   GLY A   6      16.310  15.165   3.055  0.00  0.00    +0.150 HD
BRANCH  11  15
ATOM     15  CA  THR A   5      14.760  14.148   4.902  0.00  0.00    +0.176 C 
BRANCH  15  17
ATOM     16  C   GLY A   4      12.573  13.655   5.665  0.00  0.00    +0.243 C 
ATOM     17  N   THR A   5      13.807  13.247   5.489  0.00  0.00    -0.295 N 
ATOM     18  H   THR A   5      14.091  12.287   5.770  0.00  0.00    +0.150 HD
ATOM     19  O   GLY A   4      12.186  14.745   5.261  0.00  0.00    -0.273 OA
BRANCH  16  20
ATOM     20  CA  GLY A   4      11.646  12.689   6.345  0.00  0.00    +0.176 C 
BRANCH  20  23
ATOM     21  C   LEU A   3       9.688  12.867   7.740  0.00  0.00    +0.241 C 
ATOM     22  O   LEU A   3       9.802  11.695   8.131  0.00  0.00    -0.273 OA
ATOM     23  N   GLY A   4      10.530  13.434   6.883  0.00  0.00    -0.295 N 
ATOM     24  H   GLY A   4      10.385  14.423   6.596  0.00  0.00    +0.150 HD
BRANCH  21  25
ATOM     25  CA  LEU A   3       8.522  13.737   8.182  0.00  0.00    +0.149 C 
BRANCH  25  28
ATOM     26  C   THR A   2       9.040  16.041   8.756  0.00  0.00    +0.243 C 
ATOM     27  O   THR A   2       9.173  15.750   9.940  0.00  0.00    -0.273 OA
ATOM     28  N   LEU A   3       8.730  15.137   7.834  0.00  0.00    -0.297 N 
ATOM     29  H   LEU A   3       8.634  15.434   6.842  0.00  0.00    +0.150 HD
BRANCH  26  30
ATOM     30  CA  THR A   2       9.238  17.481   8.291  0.00  0.00    +0.176 C 
BRANCH  30  32
ATOM     31  C   LYS A   1       7.054  18.314   9.083  0.00  0.00    +0.238 C 
ATOM     32  N   THR A   2       8.386  18.384   9.073  0.00  0.00    -0.295 N 
ATOM     33  H   THR A   2       8.845  19.117   9.650  0.00  0.00    +0.150 HD
ATOM     34  O   LYS A   1       6.424  17.447   8.470  0.00  0.00    -0.274 OA
BRANCH  31  35
ATOM     35  CA  LYS A   1       6.332  19.317   9.995  0.00  0.00    +0.145 C 
BRANCH  35  36
ATOM     36  N   LYS A   1       5.207  20.006   9.412  0.00  0.00    -0.238 NA
ATOM     37  H   LYS A   1       4.785  19.687   8.517  0.00  0.00    +0.142 HD
ENDBRANCH  35  36
BRANCH  35  38
ATOM     38  CB  LYS A   1       5.809  18.596  11.256  0.00  0.00    +0.026 C 
BRANCH  38  39
ATOM     39  CG  LYS A   1       6.877  18.084  12.201  0.00  0.00    -0.000 C 
BRANCH  39  40
ATOM     40  CD  LYS A   1       6.343  16.987  13.110  0.00  0.00    -0.024 C 
BRANCH  40  41
ATOM     41  CE  LYS A   1       7.473  15.992  13.515  0.00  0.00    -0.086 C 
BRANCH  41  42
ATOM     42  NZ  LYS A   1       7.885  14.970  12.454  0.00  0.00    +0.380 N 
ATOM     43  HZ1 LYS A   1       8.640  14.364  12.833  0.00  0.00    -0.089 HD
ATOM     44  HZ2 LYS A   1       7.064  14.385  12.201  0.00  0.00    -0.089 HD
ATOM     45  HZ3 LYS A   1       8.230  15.469  11.609  0.00  0.00    -0.089 HD
ENDBRANCH  41  42
ENDBRANCH  40  41
ENDBRANCH  39  40
ENDBRANCH  38  39
ENDBRANCH  35  38
ENDBRANCH  31  35
ENDBRANCH  30  32
BRANCH  30  46
ATOM     46  CB  THR A   2      10.720  17.840   8.466  0.00  0.00    +0.137 C 
ATOM     47  CG2 THR A   2      11.598  16.937   7.660  0.00  0.00    +0.034 C 
BRANCH  46  48
ATOM     48  OG1 THR A   2      10.930  19.183   8.031  0.00  0.00    -0.382 OA
ATOM     49  HG1 THR A   2      10.372  19.795   8.573  0.00  0.00    +0.210 HD
ENDBRANCH  46  48
ENDBRANCH  30  46
ENDBRANCH  26  30
ENDBRANCH  25  28
BRANCH  25  50
ATOM     50  CB  LEU A   3       7.276  13.224   7.479  0.00  0.00    +0.029 C 
BRANCH  50  51
ATOM     51  CG  LEU A   3       5.949  13.914   7.763  0.00  0.00    +0.002 C 
ATOM     52  CD2 LEU A   3       5.507  13.653   9.190  0.00  0.00    +0.000 C 
ATOM     53  CD1 LEU A   3       4.931  13.384   6.761  0.00  0.00    +0.000 C 
ENDBRANCH  50  51
ENDBRANCH  25  50
ENDBRANCH  21  25
ENDBRANCH  20  23
ENDBRANCH  16  20
ENDBRANCH  15  17
BRANCH  15  54
ATOM     54  CB  THR A   5      15.600  14.703   6.045  0.00  0.00    +0.137 C 
ATOM     55  CG2 THR A   5      16.284  13.574   6.776  0.00  0.00    +0.034 C 
BRANCH  54  56
ATOM     56  OG1 THR A   5      16.586  15.589   5.537  0.00  0.00    -0.382 OA
ATOM     57  HG1 THR A   5      17.126  15.944   6.287  0.00  0.00    +0.210 HD
ENDBRANCH  54  56
ENDBRANCH  15  54
ENDBRANCH  11  15
ENDBRANCH  10  13
ENDBRANCH   6  10
ENDBRANCH   5   8
BRANCH   5  58
ATOM     58  CB  SER A   7      20.499  13.536  -1.392  0.00  0.00    +0.166 C 
BRANCH  58  59
ATOM     59  OG  SER A   7      20.185  12.175  -1.144  0.00  0.00    -0.380 OA
ATOM     60  H   SER A   7      20.505  11.621  -1.899  0.00  0.00    +0.211 HD
ENDBRANCH  58  59
ENDBRANCH   5  58
ENDBRANCH   1   5
BRANCH   3  61
ATOM     61  CA  PHE A   8      18.100  17.213  -1.913  0.00  0.00    +0.153 C 
BRANCH  61  62
ATOM     62  C   PHE A   8      16.707  17.763  -1.625  0.00  0.00    +0.241 C 
ATOM     63  N   GLY A   9      16.135  17.328  -0.503  0.00  0.00    -0.295 N 
ATOM     64  H   GLY A   9      16.636  16.638   0.092  0.00  0.00    +0.150 HD
ATOM     65  O   PHE A   8      16.191  18.603  -2.387  0.00  0.00    -0.273 OA
BRANCH  63  66
ATOM     66  CA  GLY A   9      14.829  17.800  -0.099  0.00  0.00    +0.176 C 
BRANCH  66  67
ATOM     67  C   GLY A   9      14.359  17.167   1.197  0.00  0.00    +0.243 C 
ATOM     68  O   GLY A   9      15.091  16.407   1.833  0.00  0.00    -0.273 OA
ATOM     69  N   ARG A  10      13.134  17.511   1.586  0.00  0.00    -0.297 N 
ATOM     70  H   ARG A  10      12.606  18.190   1.001  0.00  0.00    +0.150 HD
BRANCH  69  71
ATOM     71  CA  ARG A  10      12.489  16.990   2.786  0.00  0.00    +0.149 C 
BRANCH  71  72
ATOM     72  C   ARG A  10      10.984  16.827   2.493  0.00  0.00    +0.241 C 
ATOM     73  N   VAL A  11      10.353  15.851   3.122  0.00  0.00    -0.297 N 
ATOM     74  H   VAL A  11      10.884  15.218   3.754  0.00  0.00    +0.150 HD
ATOM     75  O   ARG A  10      10.425  17.515   1.641  0.00  0.00    -0.273 OA
BRANCH  73  76
ATOM     76  CA  VAL A  11       8.932  15.654   2.940  0.00  0.00    +0.149 C 
BRANCH  76  77
ATOM     77  C   VAL A  11       8.305  16.311   4.148  0.00  0.00    +0.241 C 
ATOM     78  O   VAL A  11       8.736  16.072   5.269  0.00  0.00    -0.273 OA
ATOM     79  N   MET A  12       7.263  17.100   3.929  0.00  0.00    -0.297 N 
ATOM     80  H   MET A  12       6.919  17.215   2.954  0.00  0.00    +0.150 HD
BRANCH  79  81
ATOM     81  CA  MET A  12       6.584  17.810   4.998  0.00  0.00    +0.149 C 
BRANCH  81  82
ATOM     82  C   MET A  12       5.089  17.483   5.184  0.00  0.00    +0.241 C 
ATOM     83  N   LEU A  13       4.625  17.461   6.440  0.00  0.00    -0.298 N 
ATOM     84  H   LEU A  13       5.282  17.603   7.233  0.00  0.00    +0.150 HD
ATOM     85  O   MET A  12       4.382  17.216   4.209  0.00  0.00    -0.273 OA
BRANCH  83  86
ATOM     86  CA  LEU A  13       3.211  17.241   6.708  0.00  0.00    +0.137 C 
BRANCH  86  87
ATOM     87  C   LEU A  13       2.777  18.635   6.339  0.00  0.00    +0.227 C 
ATOM     88  O   LEU A  13       3.409  19.618   6.746  0.00  0.00    -0.286 OA
ENDBRANCH  86  87
BRANCH  86  89
ATOM     89  CB  LEU A  13       2.906  17.018   8.182  0.00  0.00    +0.028 C 
BRANCH  89  90
ATOM     90  CG  LEU A  13       1.719  16.171   8.658  0.00  0.00    +0.002 C 
ATOM     91  CD2 LEU A  13       1.183  16.811   9.899  0.00  0.00    +0.000 C 
ATOM     92  CD1 LEU A  13       0.624  16.015   7.634  0.00  0.00    +0.000 C 
ENDBRANCH  89  90
ENDBRANCH  86  89
ENDBRANCH  83  86
ENDBRANCH  81  82
BRANCH  81  93
ATOM     93  CB  MET A  12       6.745  19.304   4.771  0.00  0.00    +0.041 C 
BRANCH  93  94
ATOM     94  CG  MET A  12       8.142  19.818   4.987  0.00  0.00    +0.060 C 
BRANCH  94  95
ATOM     95  SD  MET A  12       8.010  21.606   5.223  0.00  0.00    -0.139 S 
ATOM     96  CE  MET A  12       9.757  22.097   5.455  0.00  0.00    +0.069 C 
ENDBRANCH  94  95
ENDBRANCH  93  94
ENDBRANCH  81  93
ENDBRANCH  79  81
ENDBRANCH  76  77
BRANCH  76  97
ATOM     97  CB  VAL A  11       8.570  14.192   2.960  0.00  0.00    +0.027 C 
ATOM     98  CG2 VAL A  11       7.063  14.032   2.792  0.00  0.00    +0.002 C 
ATOM     99  CG1 VAL A  11       9.361  13.451   1.896  0.00  0.00    +0.002 C 
ENDBRANCH  76  97
ENDBRANCH  73  76
ENDBRANCH  71  72
BRANCH  71 100
ATOM    100  CB  ARG A  10      12.710  17.948   3.965  0.00  0.00    +0.033 C 
BRANCH 100 101
ATOM    101  CG  ARG A  10      12.129  19.357   3.805  0.00  0.00    +0.045 C 
BRANCH 101 102
ATOM    102  CD  ARG A  10      12.995  20.409   4.511  0.00  0.00    +0.174 C 
BRANCH 102 103
ATOM    103  NE  ARG A  10      13.155  20.130   5.940  0.00  0.00    -0.265 N 
ATOM    104  CZ  ARG A  10      14.318  19.987   6.589  0.00  0.00    +0.342 C 
ATOM    105  NH2 ARG A  10      14.310  19.626   7.864  0.00  0.00    -0.292 N 
ATOM    106 HH21 ARG A  10      15.207  19.512   8.378  0.00  0.00    +0.255 HD
ATOM    107 HH22 ARG A  10      13.407  19.457   8.351  0.00  0.00    +0.255 HD
ATOM    108  NH1 ARG A  10      15.490  20.105   5.968  0.00  0.00    -0.292 N 
ATOM    109 HH11 ARG A  10      16.375  19.988   6.501  0.00  0.00    +0.255 HD
ATOM    110 HH12 ARG A  10      15.520  20.314   4.950  0.00  0.00    +0.255 HD
ATOM    111  HE  ARG A  10      12.286  20.034   6.503  0.00  0.00    +0.259 HD
ENDBRANCH 102 103
ENDBRANCH 101 102
ENDBRANCH 100 101
ENDBRANCH  71 100
ENDBRANCH  69  71
ENDBRANCH  66  67
ENDBRANCH  63  66
ENDBRANCH  61  62
BRANCH  61 112
ATOM    112  CB  PHE A   8      18.369  17.206  -3.409  0.00  0.00    +0.055 C 
BRANCH 112 113
ATOM    113  CG  PHE A   8      18.037  15.913  -4.063  0.00  0.00    -0.020 A 
ATOM    114  CD2 PHE A   8      16.722  15.563  -4.301  0.00  0.00    -0.004 A 
ATOM    115  CE2 PHE A   8      16.419  14.390  -4.936  0.00  0.00    -0.000 A 
ATOM    116  CZ  PHE A   8      17.424  13.547  -5.341  0.00  0.00    -0.000 A 
ATOM    117  CE1 PHE A   8      18.734  13.875  -5.107  0.00  0.00    -0.000 A 
ATOM    118  CD1 PHE A   8      19.042  15.055  -4.472  0.00  0.00    -0.004 A 
ENDBRANCH 112 113
ENDBRANCH  61 112
ENDBRANCH   3  61
TORSDOF 51
REMARK  Name = ../refined-set-2016/1ydt/1ydt_pocket.pdb
REMARK  261 active torsions:
REMARK  status: ('A' for Active; 'I' for Inactive)
REMARK    1  A    between atoms: _1  and  _3
REMARK    2  A    between atoms: _3  and  _4
REMARK    3  A    between atoms: _3  and  _6
REMARK    4  A    between atoms: _6  and  _7
REMARK    5  A    between atoms: _7  and  _8
REMARK    6  A    between atoms: _8  and  _9
REMARK    7  A    between atoms: _9  and  _10
REMARK    8  A    between atoms: _14  and  _16
REMARK    9  A    between atoms: _16  and  _17
REMARK   10  A    between atoms: _16  and  _19
REMARK   11  A    between atoms: _19  and  _20
REMARK   12  A    between atoms: _23  and  _25
REMARK   13  A    between atoms: _25  and  _26
REMARK   14  A    between atoms: _25  and  _28
REMARK   15  A    between atoms: _28  and  _29
REMARK   16  A    between atoms: _32  and  _34
REMARK   17  A    between atoms: _34  and  _35
REMARK   18  A    between atoms: _37  and  _39
REMARK   19  A    between atoms: _39  and  _40
REMARK   20  A    between atoms: _39  and  _42
REMARK   21  A    between atoms: _42  and  _43
REMARK   22  A    between atoms: _46  and  _48
REMARK   23  A    between atoms: _48  and  _49
REMARK   24  A    between atoms: _51  and  _53
REMARK   25  A    between atoms: _53  and  _54
REMARK   26  A    between atoms: _53  and  _56
REMARK   27  A    between atoms: _56  and  _57
REMARK   28  A    between atoms: _59  and  _61
REMARK   29  A    between atoms: _61  and  _62
REMARK   30  A    between atoms: _61  and  _64
REMARK   31  A    between atoms: _64  and  _65
REMARK   32  A    between atoms: _71  and  _73
REMARK   33  A    between atoms: _73  and  _74
REMARK   34  A    between atoms: _76  and  _78
REMARK   35  A    between atoms: _78  and  _79
REMARK   36  A    between atoms: _78  and  _81
REMARK   37  A    between atoms: _81  and  _82
REMARK   38  A    between atoms: _82  and  _83
REMARK   39  A    between atoms: _83  and  _84
REMARK   40  A    between atoms: _93  and  _95
REMARK   41  A    between atoms: _95  and  _96
REMARK   42  A    between atoms: _95  and  _98
REMARK   43  A    between atoms: _101  and  _103
REMARK   44  A    between atoms: _103  and  _104
REMARK   45  A    between atoms: _103  and  _106
REMARK   46  A    between atoms: _106  and  _107
REMARK   47  A    between atoms: _107  and  _108
REMARK   48  A    between atoms: _110  and  _112
REMARK   49  A    between atoms: _112  and  _113
REMARK   50  A    between atoms: _112  and  _115
REMARK   51  A    between atoms: _115  and  _116
REMARK   52  A    between atoms: _119  and  _121
REMARK   53  A    between atoms: _121  and  _122
REMARK   54  A    between atoms: _121  and  _124
REMARK   55  A    between atoms: _124  and  _125
REMARK   56  A    between atoms: _130  and  _131
REMARK   57  A    between atoms: _133  and  _135
REMARK   58  A    between atoms: _135  and  _136
REMARK   59  A    between atoms: _139  and  _141
REMARK   60  A    between atoms: _141  and  _142
REMARK   61  A    between atoms: _141  and  _144
REMARK   62  A    between atoms: _144  and  _145
REMARK   63  A    between atoms: _145  and  _146
REMARK   64  A    between atoms: _148  and  _150
REMARK   65  A    between atoms: _150  and  _151
REMARK   66  A    between atoms: _150  and  _153
REMARK   67  A    between atoms: _153  and  _154
REMARK   68  A    between atoms: _154  and  _155
REMARK   69  A    between atoms: _155  and  _156
REMARK   70  A    between atoms: _156  and  _157
REMARK   71  A    between atoms: _161  and  _163
REMARK   72  A    between atoms: _163  and  _164
REMARK   73  A    between atoms: _163  and  _166
REMARK   74  A    between atoms: _166  and  _167
REMARK   75  A    between atoms: _170  and  _172
REMARK   76  A    between atoms: _172  and  _173
REMARK   77  A    between atoms: _172  and  _175
REMARK   78  A    between atoms: _175  and  _176
REMARK   79  A    between atoms: _179  and  _181
REMARK   80  A    between atoms: _181  and  _182
REMARK   81  A    between atoms: _181  and  _184
REMARK   82  A    between atoms: _184  and  _185
REMARK   83  A    between atoms: _188  and  _190
REMARK   84  A    between atoms: _190  and  _191
REMARK   85  A    between atoms: _190  and  _193
REMARK   86  A    between atoms: _196  and  _198
REMARK   87  A    between atoms: _198  and  _199
REMARK   88  A    between atoms: _198  and  _201
REMARK   89  A    between atoms: _201  and  _202
REMARK   90  A    between atoms: _205  and  _207
REMARK   91  A    between atoms: _207  and  _208
REMARK   92  A    between atoms: _207  and  _210
REMARK   93  A    between atoms: _210  and  _211
REMARK   94  A    between atoms: _211  and  _212
REMARK   95  A    between atoms: _215  and  _217
REMARK   96  A    between atoms: _217  and  _218
REMARK   97  A    between atoms: _217  and  _220
REMARK   98  A    between atoms: _220  and  _221
REMARK   99  A    between atoms: _224  and  _226
REMARK  100  A    between atoms: _226  and  _227
REMARK  101  A    between atoms: _226  and  _229
REMARK  102  A    between atoms: _232  and  _234
REMARK  103  A    between atoms: _234  and  _235
REMARK  104  A    between atoms: _234  and  _237
REMARK  105  A    between atoms: _237  and  _238
REMARK  106  A    between atoms: _238  and  _239
REMARK  107  A    between atoms: _239  and  _240
REMARK  108  A    between atoms: _240  and  _241
REMARK  109  A    between atoms: _245  and  _247
REMARK  110  A    between atoms: _247  and  _248
REMARK  111  A    between atoms: _247  and  _250
REMARK  112  A    between atoms: _250  and  _251
REMARK  113  A    between atoms: _254  and  _256
REMARK  114  A    between atoms: _256  and  _257
REMARK  115  A    between atoms: _256  and  _259
REMARK  116  A    between atoms: _259  and  _260
REMARK  117  A    between atoms: _260  and  _261
REMARK  118  A    between atoms: _263  and  _265
REMARK  119  A    between atoms: _265  and  _266
REMARK  120  A    between atoms: _265  and  _268
REMARK  121  A    between atoms: _271  and  _273
REMARK  122  A    between atoms: _273  and  _274
REMARK  123  A    between atoms: _273  and  _276
REMARK  124  A    between atoms: _276  and  _277
REMARK  125  A    between atoms: _277  and  _278
REMARK  126  A    between atoms: _280  and  _282
REMARK  127  A    between atoms: _282  and  _283
REMARK  128  A    between atoms: _282  and  _285
REMARK  129  A    between atoms: _285  and  _286
REMARK  130  A    between atoms: _286  and  _287
REMARK  131  A    between atoms: _290  and  _292
REMARK  132  A    between atoms: _292  and  _293
REMARK  133  A    between atoms: _292  and  _295
REMARK  134  A    between atoms: _295  and  _296
REMARK  135  A    between atoms: _301  and  _302
REMARK  136  A    between atoms: _304  and  _306
REMARK  137  A    between atoms: _306  and  _307
REMARK  138  A    between atoms: _306  and  _309
REMARK  139  A    between atoms: _312  and  _314
REMARK  140  A    between atoms: _314  and  _315
REMARK  141  A    between atoms: _318  and  _320
REMARK  142  A    between atoms: _320  and  _321
REMARK  143  A    between atoms: _323  and  _325
REMARK  144  A    between atoms: _325  and  _326
REMARK  145  A    between atoms: _328  and  _330
REMARK  146  A    between atoms: _330  and  _331
REMARK  147  A    between atoms: _330  and  _333
REMARK  148  A    between atoms: _333  and  _334
REMARK  149  A    between atoms: _334  and  _335
REMARK  150  A    between atoms: _338  and  _340
REMARK  151  A    between atoms: _340  and  _341
REMARK  152  A    between atoms: _340  and  _343
REMARK  153  A    between atoms: _343  and  _344
REMARK  154  A    between atoms: _344  and  _345
REMARK  155  A    between atoms: _347  and  _349
REMARK  156  A    between atoms: _349  and  _350
REMARK  157  A    between atoms: _349  and  _352
REMARK  158  A    between atoms: _352  and  _353
REMARK  159  A    between atoms: _359  and  _361
REMARK  160  A    between atoms: _361  and  _362
REMARK  161  A    between atoms: _361  and  _364
REMARK  162  A    between atoms: _364  and  _365
REMARK  163  A    between atoms: _370  and  _371
REMARK  164  A    between atoms: _373  and  _375
REMARK  165  A    between atoms: _375  and  _376
REMARK  166  A    between atoms: _375  and  _378
REMARK  167  A    between atoms: _378  and  _379
REMARK  168  A    between atoms: _382  and  _384
REMARK  169  A    between atoms: _384  and  _385
REMARK  170  A    between atoms: _384  and  _387
REMARK  171  A    between atoms: _387  and  _388
REMARK  172  A    between atoms: _388  and  _389
REMARK  173  A    between atoms: _389  and  _390
REMARK  174  A    between atoms: _390  and  _391
REMARK  175  A    between atoms: _396  and  _397
REMARK  176  A    between atoms: _402  and  _404
REMARK  177  A    between atoms: _404  and  _405
REMARK  178  A    between atoms: _404  and  _407
REMARK  179  A    between atoms: _407  and  _408
REMARK  180  A    between atoms: _408  and  _409
REMARK  181  A    between atoms: _412  and  _414
REMARK  182  A    between atoms: _414  and  _415
REMARK  183  A    between atoms: _414  and  _417
REMARK  184  A    between atoms: _417  and  _418
REMARK  185  A    between atoms: _423  and  _425
REMARK  186  A    between atoms: _425  and  _426
REMARK  187  A    between atoms: _425  and  _428
REMARK  188  A    between atoms: _428  and  _429
REMARK  189  A    between atoms: _432  and  _434
REMARK  190  A    between atoms: _434  and  _435
REMARK  191  A    between atoms: _434  and  _437
REMARK  192  A    between atoms: _437  and  _438
REMARK  193  A    between atoms: _441  and  _443
REMARK  194  A    between atoms: _443  and  _444
REMARK  195  A    between atoms: _443  and  _446
REMARK  196  A    between atoms: _446  and  _447
REMARK  197  A    between atoms: _450  and  _452
REMARK  198  A    between atoms: _452  and  _453
REMARK  199  A    between atoms: _452  and  _455
REMARK  200  A    between atoms: _455  and  _456
REMARK  201  A    between atoms: _459  and  _461
REMARK  202  A    between atoms: _461  and  _462
REMARK  203  A    between atoms: _461  and  _464
REMARK  204  A    between atoms: _464  and  _465
REMARK  205  A    between atoms: _465  and  _466
REMARK  206  A    between atoms: _471  and  _473
REMARK  207  A    between atoms: _473  and  _474
REMARK  208  A    between atoms: _473  and  _476
REMARK  209  A    between atoms: _479  and  _481
REMARK  210  A    between atoms: _481  and  _482
REMARK  211  A    between atoms: _481  and  _484
REMARK  212  A    between atoms: _484  and  _485
REMARK  213  A    between atoms: _488  and  _490
REMARK  214  A    between atoms: _490  and  _491
REMARK  215  A    between atoms: _490  and  _493
REMARK  216  A    between atoms: _493  and  _494
REMARK  217  A    between atoms: _497  and  _499
REMARK  218  A    between atoms: _499  and  _500
REMARK  219  A    between atoms: _499  and  _502
REMARK  220  A    between atoms: _502  and  _503
REMARK  221  A    between atoms: _509  and  _511
REMARK  222  A    between atoms: _511  and  _512
REMARK  223  A    between atoms: _514  and  _516
REMARK  224  A    between atoms: _516  and  _517
REMARK  225  A    between atoms: _516  and  _519
REMARK  226  A    between atoms: _519  and  _520
REMARK  227  A    between atoms: _523  and  _525
REMARK  228  A    between atoms: _525  and  _526
REMARK  229  A    between atoms: _525  and  _528
REMARK  230  A    between atoms: _528  and  _529
REMARK  231  A    between atoms: _534  and  _536
REMARK  232  A    between atoms: _536  and  _537
REMARK  233  A    between atoms: _536  and  _539
REMARK  234  A    between atoms: _539  and  _540
REMARK  235  A    between atoms: _546  and  _548
REMARK  236  A    between atoms: _548  and  _549
REMARK  237  A    between atoms: _548  and  _551
REMARK  238  A    between atoms: _551  and  _552
REMARK  239  A    between atoms: _555  and  _557
REMARK  240  A    between atoms: _557  and  _558
REMARK  241  A    between atoms: _557  and  _560
REMARK  242  A    between atoms: _560  and  _561
REMARK  243  A    between atoms: _566  and  _567
REMARK  244  A    between atoms: _569  and  _571
REMARK  245  A    between atoms: _571  and  _572
REMARK  246  A    between atoms: _571  and  _574
REMARK  247  A    between atoms: _574  and  _575
REMARK  248  A    between atoms: _575  and  _576
REMARK  249  A    between atoms: _576  and  _577
REMARK  250  A    between atoms: _586  and  _588
REMARK  251  A    between atoms: _588  and  _589
REMARK  252  A    between atoms: _588  and  _591
REMARK  253  A    between atoms: _591  and  _592
REMARK  254  A    between atoms: _592  and  _593
REMARK  255  A    between atoms: _593  and  _594
REMARK  256  A    between atoms: _603  and  _605
REMARK  257  A    between atoms: _605  and  _606
REMARK  258  A    between atoms: _605  and  _608
REMARK  259  A    between atoms: _608  and  _609
REMARK  260  A    between atoms: _614  and  _616
REMARK  261  A    between atoms: _616  and  _617
REMARK                            x       y       z     vdW  Elec       q    Type
REMARK                         _______ _______ _______ _____ _____    ______ ____
ROOT
ATOM      1  CA  LYS A   4       7.915  16.505  -1.193  0.00  0.00    +0.149 C 
ENDROOT
BRANCH   1   2
ATOM      2  C   LYS A   4       8.493  17.763  -1.801  0.00  0.00    +0.241 C 
ATOM      3  N   ILE A   5       9.557  18.301  -1.235  0.00  0.00    -0.297 N 
ATOM      4  H   ILE A   5       9.985  17.852  -0.400  0.00  0.00    +0.150 HD
ATOM      5  O   LYS A   4       7.962  18.271  -2.773  0.00  0.00    -0.273 OA
BRANCH   3   6
ATOM      6  CA  ILE A   5      10.134  19.527  -1.780  0.00  0.00    +0.149 C 
BRANCH   6   7
ATOM      7  C   ILE A   5      11.539  19.261  -2.323  0.00  0.00    +0.241 C 
ATOM      8  O   ILE A   5      12.432  18.952  -1.559  0.00  0.00    -0.273 OA
ATOM      9  N   LEU A   6      11.726  19.314  -3.646  0.00  0.00    -0.297 N 
ATOM     10  H   LEU A   6      10.919  19.535  -4.264  0.00  0.00    +0.150 HD
BRANCH   9  11
ATOM     11  CA  LEU A   6      13.038  19.069  -4.245  0.00  0.00    +0.149 C 
BRANCH  11  12
ATOM     12  C   LEU A   6      13.714  20.384  -4.587  0.00  0.00    +0.241 C 
ATOM     13  N   ASP A   7      14.931  20.586  -4.133  0.00  0.00    -0.298 N 
ATOM     14  H   ASP A   7      15.386  19.865  -3.537  0.00  0.00    +0.150 HD
ATOM     15  O   LEU A   6      13.134  21.238  -5.208  0.00  0.00    -0.273 OA
BRANCH  13  16
ATOM     16  CA  ASP A   7      15.647  21.813  -4.459  0.00  0.00    +0.148 C 
BRANCH  16  17
ATOM     17  C   ASP A   7      16.130  21.596  -5.901  0.00  0.00    +0.227 C 
ATOM     18  O   ASP A   7      16.808  20.599  -6.197  0.00  0.00    -0.286 OA
ENDBRANCH  16  17
BRANCH  16  19
ATOM     19  CB  ASP A   7      16.837  21.979  -3.499  0.00  0.00    +0.142 C 
BRANCH  19  20
ATOM     20  CG  ASP A   7      17.613  23.269  -3.735  0.00  0.00    +0.367 C 
ATOM     21  OD2 ASP A   7      17.950  23.950  -2.744  0.00  0.00    -0.246 OA
ATOM     22  OD1 ASP A   7      17.903  23.607  -4.902  0.00  0.00    -0.246 OA
ENDBRANCH  19  20
ENDBRANCH  16  19
ENDBRANCH  13  16
ENDBRANCH  11  12
BRANCH  11  23
ATOM     23  CB  LEU A   6      12.900  18.237  -5.520  0.00  0.00    +0.029 C 
BRANCH  23  24
ATOM     24  CG  LEU A   6      12.314  16.809  -5.552  0.00  0.00    +0.002 C 
ATOM     25  CD2 LEU A   6      13.170  15.841  -4.760  0.00  0.00    +0.000 C 
ATOM     26  CD1 LEU A   6      10.896  16.798  -5.022  0.00  0.00    +0.000 C 
ENDBRANCH  23  24
ENDBRANCH  11  23
ENDBRANCH   9  11
ENDBRANCH   6   7
BRANCH   6  27
ATOM     27  CB  ILE A   5      10.154  20.594  -0.706  0.00  0.00    +0.027 C 
ATOM     28  CG2 ILE A   5      10.667  21.893  -1.250  0.00  0.00    +0.002 C 
BRANCH  27  29
ATOM     29  CG1 ILE A   5       8.740  20.747  -0.154  0.00  0.00    +0.002 C 
ATOM     30  CD1 ILE A   5       8.652  21.485   1.133  0.00  0.00    +0.000 C 
ENDBRANCH  27  29
ENDBRANCH   6  27
ENDBRANCH   3   6
ENDBRANCH   1   2
BRANCH   1  33
ATOM     31  C   MET A   3       6.020  17.198   0.158  0.00  0.00    +0.241 C 
ATOM     32  O   MET A   3       6.735  17.367   1.131  0.00  0.00    -0.273 OA
ATOM     33  N   LYS A   4       6.489  16.736  -0.992  0.00  0.00    -0.297 N 
ATOM     34  H   LYS A   4       5.826  16.534  -1.768  0.00  0.00    +0.150 HD
BRANCH  31  35
ATOM     35  CA  MET A   3       4.528  17.456   0.269  0.00  0.00    +0.149 C 
BRANCH  35  37
ATOM     36  C   ALA A   2       3.372  15.572   1.290  0.00  0.00    +0.241 C 
ATOM     37  N   MET A   3       4.020  16.720   1.430  0.00  0.00    -0.297 N 
ATOM     38  H   MET A   3       4.171  17.106   2.384  0.00  0.00    +0.150 HD
ATOM     39  O   ALA A   2       3.037  15.147   0.197  0.00  0.00    -0.273 OA
BRANCH  36  40
ATOM     40  CA  ALA A   2       2.904  14.863   2.550  0.00  0.00    +0.149 C 
ATOM     41  CB  ALA A   2       3.425  13.449   2.575  0.00  0.00    +0.031 C 
BRANCH  40  44
ATOM     42  C   TYR A   1       0.620  15.553   3.086  0.00  0.00    +0.239 C 
ATOM     43  O   TYR A   1       0.964  16.184   4.076  0.00  0.00    -0.274 OA
ATOM     44  N   ALA A   2       1.465  14.867   2.334  0.00  0.00    -0.297 N 
ATOM     45  H   ALA A   2       1.082  14.302   1.549  0.00  0.00    +0.150 HD
BRANCH  42  46
ATOM     46  CA  TYR A   1      -0.827  15.510   2.669  0.00  0.00    +0.149 C 
BRANCH  46  47
ATOM     47  N   TYR A   1      -1.526  16.233   3.703  0.00  0.00    -0.238 NA
ATOM     48  H   TYR A   1      -1.068  17.064   4.129  0.00  0.00    +0.142 HD
ENDBRANCH  46  47
BRANCH  46  49
ATOM     49  CB  TYR A   1      -0.968  16.269   1.347  0.00  0.00    +0.053 C 
BRANCH  49  50
ATOM     50  CG  TYR A   1      -2.388  16.427   0.844  0.00  0.00    -0.020 A 
ATOM     51  CD2 TYR A   1      -3.055  17.658   0.908  0.00  0.00    -0.001 A 
ATOM     52  CE2 TYR A   1      -4.378  17.778   0.444  0.00  0.00    +0.036 A 
ATOM     53  CZ  TYR A   1      -5.024  16.669  -0.075  0.00  0.00    +0.134 A 
ATOM     54  CE1 TYR A   1      -4.395  15.459  -0.144  0.00  0.00    +0.036 A 
ATOM     55  CD1 TYR A   1      -3.074  15.337   0.312  0.00  0.00    -0.001 A 
BRANCH  53  56
ATOM     56  OH  TYR A   1      -6.294  16.732  -0.564  0.00  0.00    -0.506 OA
ATOM     57  HH  TYR A   1      -6.568  15.836  -0.885  0.00  0.00    +0.292 HD
ENDBRANCH  53  56
ENDBRANCH  49  50
ENDBRANCH  46  49
ENDBRANCH  42  46
ENDBRANCH  40  44
ENDBRANCH  36  40
ENDBRANCH  35  37
BRANCH  35  58
ATOM     58  CB  MET A   3       4.301  18.955   0.464  0.00  0.00    +0.041 C 
BRANCH  58  59
ATOM     59  CG  MET A   3       4.949  19.839  -0.558  0.00  0.00    +0.060 C 
BRANCH  59  60
ATOM     60  SD  MET A   3       4.951  21.571  -0.011  0.00  0.00    -0.139 S 
ATOM     61  CE  MET A   3       3.364  22.072  -0.657  0.00  0.00    +0.069 C 
ENDBRANCH  59  60
ENDBRANCH  58  59
ENDBRANCH  35  58
ENDBRANCH  31  35
ENDBRANCH   1  33
BRANCH   1  62
ATOM     62  CB  LYS A   4       8.119  15.336  -2.124  0.00  0.00    +0.029 C 
BRANCH  62  63
ATOM     63  CG  LYS A   4       9.550  14.896  -2.263  0.00  0.00    +0.000 C 
BRANCH  63  64
ATOM     64  CD  LYS A   4       9.561  13.474  -2.773  0.00  0.00    -0.024 C 
BRANCH  64  65
ATOM     65  CE  LYS A   4      10.959  12.940  -2.930  0.00  0.00    -0.086 C 
BRANCH  65  66
ATOM     66  NZ  LYS A   4      10.877  11.498  -3.227  0.00  0.00    +0.380 N 
ATOM     67  HZ1 LYS A   4      10.396  11.011  -2.444  0.00  0.00    -0.089 HD
ATOM     68  HZ2 LYS A   4      11.837  11.113  -3.339  0.00  0.00    -0.089 HD
ATOM     69  HZ3 LYS A   4      10.341  11.356  -4.107  0.00  0.00    -0.089 HD
ENDBRANCH  65  66
ENDBRANCH  64  65
ENDBRANCH  63  64
ENDBRANCH  62  63
ENDBRANCH   1  62
TORSDOF 31
REMARK  Name = ../refined-set-2016/1ydt/1ydt_pocket.pdb
REMARK  261 active torsions:
REMARK  status: ('A' for Active; 'I' for Inactive)
REMARK    1  A    between atoms: _1  and  _3
REMARK    2  A    between atoms: _3  and  _4
REMARK    3  A    between atoms: _3  and  _6
REMARK    4  A    between atoms: _6  and  _7
REMARK    5  A    between atoms: _7  and  _8
REMARK    6  A    between atoms: _8  and  _9
REMARK    7  A    between atoms: _9  and  _10
REMARK    8  A    between atoms: _14  and  _16
REMARK    9  A    between atoms: _16  and  _17
REMARK   10  A    between atoms: _16  and  _19
REMARK   11  A    between atoms: _19  and  _20
REMARK   12  A    between atoms: _23  and  _25
REMARK   13  A    between atoms: _25  and  _26
REMARK   14  A    between atoms: _25  and  _28
REMARK   15  A    between atoms: _28  and  _29
REMARK   16  A    between atoms: _32  and  _34
REMARK   17  A    between atoms: _34  and  _35
REMARK   18  A    between atoms: _37  and  _39
REMARK   19  A    between atoms: _39  and  _40
REMARK   20  A    between atoms: _39  and  _42
REMARK   21  A    between atoms: _42  and  _43
REMARK   22  A    between atoms: _46  and  _48
REMARK   23  A    between atoms: _48  and  _49
REMARK   24  A    between atoms: _51  and  _53
REMARK   25  A    between atoms: _53  and  _54
REMARK   26  A    between atoms: _53  and  _56
REMARK   27  A    between atoms: _56  and  _57
REMARK   28  A    between atoms: _59  and  _61
REMARK   29  A    between atoms: _61  and  _62
REMARK   30  A    between atoms: _61  and  _64
REMARK   31  A    between atoms: _64  and  _65
REMARK   32  A    between atoms: _71  and  _73
REMARK   33  A    between atoms: _73  and  _74
REMARK   34  A    between atoms: _76  and  _78
REMARK   35  A    between atoms: _78  and  _79
REMARK   36  A    between atoms: _78  and  _81
REMARK   37  A    between atoms: _81  and  _82
REMARK   38  A    between atoms: _82  and  _83
REMARK   39  A    between atoms: _83  and  _84
REMARK   40  A    between atoms: _93  and  _95
REMARK   41  A    between atoms: _95  and  _96
REMARK   42  A    between atoms: _95  and  _98
REMARK   43  A    between atoms: _101  and  _103
REMARK   44  A    between atoms: _103  and  _104
REMARK   45  A    between atoms: _103  and  _106
REMARK   46  A    between atoms: _106  and  _107
REMARK   47  A    between atoms: _107  and  _108
REMARK   48  A    between atoms: _110  and  _112
REMARK   49  A    between atoms: _112  and  _113
REMARK   50  A    between atoms: _112  and  _115
REMARK   51  A    between atoms: _115  and  _116
REMARK   52  A    between atoms: _119  and  _121
REMARK   53  A    between atoms: _121  and  _122
REMARK   54  A    between atoms: _121  and  _124
REMARK   55  A    between atoms: _124  and  _125
REMARK   56  A    between atoms: _130  and  _131
REMARK   57  A    between atoms: _133  and  _135
REMARK   58  A    between atoms: _135  and  _136
REMARK   59  A    between atoms: _139  and  _141
REMARK   60  A    between atoms: _141  and  _142
REMARK   61  A    between atoms: _141  and  _144
REMARK   62  A    between atoms: _144  and  _145
REMARK   63  A    between atoms: _145  and  _146
REMARK   64  A    between atoms: _148  and  _150
REMARK   65  A    between atoms: _150  and  _151
REMARK   66  A    between atoms: _150  and  _153
REMARK   67  A    between atoms: _153  and  _154
REMARK   68  A    between atoms: _154  and  _155
REMARK   69  A    between atoms: _155  and  _156
REMARK   70  A    between atoms: _156  and  _157
REMARK   71  A    between atoms: _161  and  _163
REMARK   72  A    between atoms: _163  and  _164
REMARK   73  A    between atoms: _163  and  _166
REMARK   74  A    between atoms: _166  and  _167
REMARK   75  A    between atoms: _170  and  _172
REMARK   76  A    between atoms: _172  and  _173
REMARK   77  A    between atoms: _172  and  _175
REMARK   78  A    between atoms: _175  and  _176
REMARK   79  A    between atoms: _179  and  _181
REMARK   80  A    between atoms: _181  and  _182
REMARK   81  A    between atoms: _181  and  _184
REMARK   82  A    between atoms: _184  and  _185
REMARK   83  A    between atoms: _188  and  _190
REMARK   84  A    between atoms: _190  and  _191
REMARK   85  A    between atoms: _190  and  _193
REMARK   86  A    between atoms: _196  and  _198
REMARK   87  A    between atoms: _198  and  _199
REMARK   88  A    between atoms: _198  and  _201
REMARK   89  A    between atoms: _201  and  _202
REMARK   90  A    between atoms: _205  and  _207
REMARK   91  A    between atoms: _207  and  _208
REMARK   92  A    between atoms: _207  and  _210
REMARK   93  A    between atoms: _210  and  _211
REMARK   94  A    between atoms: _211  and  _212
REMARK   95  A    between atoms: _215  and  _217
REMARK   96  A    between atoms: _217  and  _218
REMARK   97  A    between atoms: _217  and  _220
REMARK   98  A    between atoms: _220  and  _221
REMARK   99  A    between atoms: _224  and  _226
REMARK  100  A    between atoms: _226  and  _227
REMARK  101  A    between atoms: _226  and  _229
REMARK  102  A    between atoms: _232  and  _234
REMARK  103  A    between atoms: _234  and  _235
REMARK  104  A    between atoms: _234  and  _237
REMARK  105  A    between atoms: _237  and  _238
REMARK  106  A    between atoms: _238  and  _239
REMARK  107  A    between atoms: _239  and  _240
REMARK  108  A    between atoms: _240  and  _241
REMARK  109  A    between atoms: _245  and  _247
REMARK  110  A    between atoms: _247  and  _248
REMARK  111  A    between atoms: _247  and  _250
REMARK  112  A    between atoms: _250  and  _251
REMARK  113  A    between atoms: _254  and  _256
REMARK  114  A    between atoms: _256  and  _257
REMARK  115  A    between atoms: _256  and  _259
REMARK  116  A    between atoms: _259  and  _260
REMARK  117  A    between atoms: _260  and  _261
REMARK  118  A    between atoms: _263  and  _265
REMARK  119  A    between atoms: _265  and  _266
REMARK  120  A    between atoms: _265  and  _268
REMARK  121  A    between atoms: _271  and  _273
REMARK  122  A    between atoms: _273  and  _274
REMARK  123  A    between atoms: _273  and  _276
REMARK  124  A    between atoms: _276  and  _277
REMARK  125  A    between atoms: _277  and  _278
REMARK  126  A    between atoms: _280  and  _282
REMARK  127  A    between atoms: _282  and  _283
REMARK  128  A    between atoms: _282  and  _285
REMARK  129  A    between atoms: _285  and  _286
REMARK  130  A    between atoms: _286  and  _287
REMARK  131  A    between atoms: _290  and  _292
REMARK  132  A    between atoms: _292  and  _293
REMARK  133  A    between atoms: _292  and  _295
REMARK  134  A    between atoms: _295  and  _296
REMARK  135  A    between atoms: _301  and  _302
REMARK  136  A    between atoms: _304  and  _306
REMARK  137  A    between atoms: _306  and  _307
REMARK  138  A    between atoms: _306  and  _309
REMARK  139  A    between atoms: _312  and  _314
REMARK  140  A    between atoms: _314  and  _315
REMARK  141  A    between atoms: _318  and  _320
REMARK  142  A    between atoms: _320  and  _321
REMARK  143  A    between atoms: _323  and  _325
REMARK  144  A    between atoms: _325  and  _326
REMARK  145  A    between atoms: _328  and  _330
REMARK  146  A    between atoms: _330  and  _331
REMARK  147  A    between atoms: _330  and  _333
REMARK  148  A    between atoms: _333  and  _334
REMARK  149  A    between atoms: _334  and  _335
REMARK  150  A    between atoms: _338  and  _340
REMARK  151  A    between atoms: _340  and  _341
REMARK  152  A    between atoms: _340  and  _343
REMARK  153  A    between atoms: _343  and  _344
REMARK  154  A    between atoms: _344  and  _345
REMARK  155  A    between atoms: _347  and  _349
REMARK  156  A    between atoms: _349  and  _350
REMARK  157  A    between atoms: _349  and  _352
REMARK  158  A    between atoms: _352  and  _353
REMARK  159  A    between atoms: _359  and  _361
REMARK  160  A    between atoms: _361  and  _362
REMARK  161  A    between atoms: _361  and  _364
REMARK  162  A    between atoms: _364  and  _365
REMARK  163  A    between atoms: _370  and  _371
REMARK  164  A    between atoms: _373  and  _375
REMARK  165  A    between atoms: _375  and  _376
REMARK  166  A    between atoms: _375  and  _378
REMARK  167  A    between atoms: _378  and  _379
REMARK  168  A    between atoms: _382  and  _384
REMARK  169  A    between atoms: _384  and  _385
REMARK  170  A    between atoms: _384  and  _387
REMARK  171  A    between atoms: _387  and  _388
REMARK  172  A    between atoms: _388  and  _389
REMARK  173  A    between atoms: _389  and  _390
REMARK  174  A    between atoms: _390  and  _391
REMARK  175  A    between atoms: _396  and  _397
REMARK  176  A    between atoms: _402  and  _404
REMARK  177  A    between atoms: _404  and  _405
REMARK  178  A    between atoms: _404  and  _407
REMARK  179  A    between atoms: _407  and  _408
REMARK  180  A    between atoms: _408  and  _409
REMARK  181  A    between atoms: _412  and  _414
REMARK  182  A    between atoms: _414  and  _415
REMARK  183  A    between atoms: _414  and  _417
REMARK  184  A    between atoms: _417  and  _418
REMARK  185  A    between atoms: _423  and  _425
REMARK  186  A    between atoms: _425  and  _426
REMARK  187  A    between atoms: _425  and  _428
REMARK  188  A    between atoms: _428  and  _429
REMARK  189  A    between atoms: _432  and  _434
REMARK  190  A    between atoms: _434  and  _435
REMARK  191  A    between atoms: _434  and  _437
REMARK  192  A    between atoms: _437  and  _438
REMARK  193  A    between atoms: _441  and  _443
REMARK  194  A    between atoms: _443  and  _444
REMARK  195  A    between atoms: _443  and  _446
REMARK  196  A    between atoms: _446  and  _447
REMARK  197  A    between atoms: _450  and  _452
REMARK  198  A    between atoms: _452  and  _453
REMARK  199  A    between atoms: _452  and  _455
REMARK  200  A    between atoms: _455  and  _456
REMARK  201  A    between atoms: _459  and  _461
REMARK  202  A    between atoms: _461  and  _462
REMARK  203  A    between atoms: _461  and  _464
REMARK  204  A    between atoms: _464  and  _465
REMARK  205  A    between atoms: _465  and  _466
REMARK  206  A    between atoms: _471  and  _473
REMARK  207  A    between atoms: _473  and  _474
REMARK  208  A    between atoms: _473  and  _476
REMARK  209  A    between atoms: _479  and  _481
REMARK  210  A    between atoms: _481  and  _482
REMARK  211  A    between atoms: _481  and  _484
REMARK  212  A    between atoms: _484  and  _485
REMARK  213  A    between atoms: _488  and  _490
REMARK  214  A    between atoms: _490  and  _491
REMARK  215  A    between atoms: _490  and  _493
REMARK  216  A    between atoms: _493  and  _494
REMARK  217  A    between atoms: _497  and  _499
REMARK  218  A    between atoms: _499  and  _500
REMARK  219  A    between atoms: _499  and  _502
REMARK  220  A    between atoms: _502  and  _503
REMARK  221  A    between atoms: _509  and  _511
REMARK  222  A    between atoms: _511  and  _512
REMARK  223  A    between atoms: _514  and  _516
REMARK  224  A    between atoms: _516  and  _517
REMARK  225  A    between atoms: _516  and  _519
REMARK  226  A    between atoms: _519  and  _520
REMARK  227  A    between atoms: _523  and  _525
REMARK  228  A    between atoms: _525  and  _526
REMARK  229  A    between atoms: _525  and  _528
REMARK  230  A    between atoms: _528  and  _529
REMARK  231  A    between atoms: _534  and  _536
REMARK  232  A    between atoms: _536  and  _537
REMARK  233  A    between atoms: _536  and  _539
REMARK  234  A    between atoms: _539  and  _540
REMARK  235  A    between atoms: _546  and  _548
REMARK  236  A    between atoms: _548  and  _549
REMARK  237  A    between atoms: _548  and  _551
REMARK  238  A    between atoms: _551  and  _552
REMARK  239  A    between atoms: _555  and  _557
REMARK  240  A    between atoms: _557  and  _558
REMARK  241  A    between atoms: _557  and  _560
REMARK  242  A    between atoms: _560  and  _561
REMARK  243  A    between atoms: _566  and  _567
REMARK  244  A    between atoms: _569  and  _571
REMARK  245  A    between atoms: _571  and  _572
REMARK  246  A    between atoms: _571  and  _574
REMARK  247  A    between atoms: _574  and  _575
REMARK  248  A    between atoms: _575  and  _576
REMARK  249  A    between atoms: _576  and  _577
REMARK  250  A    between atoms: _586  and  _588
REMARK  251  A    between atoms: _588  and  _589
REMARK  252  A    between atoms: _588  and  _591
REMARK  253  A    between atoms: _591  and  _592
REMARK  254  A    between atoms: _592  and  _593
REMARK  255  A    between atoms: _593  and  _594
REMARK  256  A    between atoms: _603  and  _605
REMARK  257  A    between atoms: _605  and  _606
REMARK  258  A    between atoms: _605  and  _608
REMARK  259  A    between atoms: _608  and  _609
REMARK  260  A    between atoms: _614  and  _616
REMARK  261  A    between atoms: _616  and  _617
REMARK                            x       y       z     vdW  Elec       q    Type
REMARK                         _______ _______ _______ _____ _____    ______ ____
ROOT
ATOM      1  CA  VAL A   1      19.052  17.901  -8.056  0.00  0.00    +0.133 C 
ENDROOT
BRANCH   1   2
ATOM      2  CB  VAL A   1      17.588  17.941  -8.582  0.00  0.00    +0.023 C 
ATOM      3  CG2 VAL A   1      16.609  18.048  -7.445  0.00  0.00    +0.002 C 
ATOM      4  CG1 VAL A   1      17.296  16.687  -9.403  0.00  0.00    +0.002 C 
ENDBRANCH   1   2
BRANCH   1   5
ATOM      5  N   VAL A   1      19.363  19.072  -7.228  0.00  0.00    -0.239 NA
ATOM      6  H   VAL A   1      18.710  19.881  -7.210  0.00  0.00    +0.142 HD
ENDBRANCH   1   5
BRANCH   1   7
ATOM      7  C   VAL A   1      20.046  17.921  -9.244  0.00  0.00    +0.224 C 
ATOM      8  O   VAL A   1      20.597  16.882  -9.650  0.00  0.00    -0.287 OA
ENDBRANCH   1   7
TORSDOF 3
REMARK  Name = ../refined-set-2016/1ydt/1ydt_pocket.pdb
REMARK  261 active torsions:
REMARK  status: ('A' for Active; 'I' for Inactive)
REMARK    1  A    between atoms: _1  and  _3
REMARK    2  A    between atoms: _3  and  _4
REMARK    3  A    between atoms: _3  and  _6
REMARK    4  A    between atoms: _6  and  _7
REMARK    5  A    between atoms: _7  and  _8
REMARK    6  A    between atoms: _8  and  _9
REMARK    7  A    between atoms: _9  and  _10
REMARK    8  A    between atoms: _14  and  _16
REMARK    9  A    between atoms: _16  and  _17
REMARK   10  A    between atoms: _16  and  _19
REMARK   11  A    between atoms: _19  and  _20
REMARK   12  A    between atoms: _23  and  _25
REMARK   13  A    between atoms: _25  and  _26
REMARK   14  A    between atoms: _25  and  _28
REMARK   15  A    between atoms: _28  and  _29
REMARK   16  A    between atoms: _32  and  _34
REMARK   17  A    between atoms: _34  and  _35
REMARK   18  A    between atoms: _37  and  _39
REMARK   19  A    between atoms: _39  and  _40
REMARK   20  A    between atoms: _39  and  _42
REMARK   21  A    between atoms: _42  and  _43
REMARK   22  A    between atoms: _46  and  _48
REMARK   23  A    between atoms: _48  and  _49
REMARK   24  A    between atoms: _51  and  _53
REMARK   25  A    between atoms: _53  and  _54
REMARK   26  A    between atoms: _53  and  _56
REMARK   27  A    between atoms: _56  and  _57
REMARK   28  A    between atoms: _59  and  _61
REMARK   29  A    between atoms: _61  and  _62
REMARK   30  A    between atoms: _61  and  _64
REMARK   31  A    between atoms: _64  and  _65
REMARK   32  A    between atoms: _71  and  _73
REMARK   33  A    between atoms: _73  and  _74
REMARK   34  A    between atoms: _76  and  _78
REMARK   35  A    between atoms: _78  and  _79
REMARK   36  A    between atoms: _78  and  _81
REMARK   37  A    between atoms: _81  and  _82
REMARK   38  A    between atoms: _82  and  _83
REMARK   39  A    between atoms: _83  and  _84
REMARK   40  A    between atoms: _93  and  _95
REMARK   41  A    between atoms: _95  and  _96
REMARK   42  A    between atoms: _95  and  _98
REMARK   43  A    between atoms: _101  and  _103
REMARK   44  A    between atoms: _103  and  _104
REMARK   45  A    between atoms: _103  and  _106
REMARK   46  A    between atoms: _106  and  _107
REMARK   47  A    between atoms: _107  and  _108
REMARK   48  A    between atoms: _110  and  _112
REMARK   49  A    between atoms: _112  and  _113
REMARK   50  A    between atoms: _112  and  _115
REMARK   51  A    between atoms: _115  and  _116
REMARK   52  A    between atoms: _119  and  _121
REMARK   53  A    between atoms: _121  and  _122
REMARK   54  A    between atoms: _121  and  _124
REMARK   55  A    between atoms: _124  and  _125
REMARK   56  A    between atoms: _130  and  _131
REMARK   57  A    between atoms: _133  and  _135
REMARK   58  A    between atoms: _135  and  _136
REMARK   59  A    between atoms: _139  and  _141
REMARK   60  A    between atoms: _141  and  _142
REMARK   61  A    between atoms: _141  and  _144
REMARK   62  A    between atoms: _144  and  _145
REMARK   63  A    between atoms: _145  and  _146
REMARK   64  A    between atoms: _148  and  _150
REMARK   65  A    between atoms: _150  and  _151
REMARK   66  A    between atoms: _150  and  _153
REMARK   67  A    between atoms: _153  and  _154
REMARK   68  A    between atoms: _154  and  _155
REMARK   69  A    between atoms: _155  and  _156
REMARK   70  A    between atoms: _156  and  _157
REMARK   71  A    between atoms: _161  and  _163
REMARK   72  A    between atoms: _163  and  _164
REMARK   73  A    between atoms: _163  and  _166
REMARK   74  A    between atoms: _166  and  _167
REMARK   75  A    between atoms: _170  and  _172
REMARK   76  A    between atoms: _172  and  _173
REMARK   77  A    between atoms: _172  and  _175
REMARK   78  A    between atoms: _175  and  _176
REMARK   79  A    between atoms: _179  and  _181
REMARK   80  A    between atoms: _181  and  _182
REMARK   81  A    between atoms: _181  and  _184
REMARK   82  A    between atoms: _184  and  _185
REMARK   83  A    between atoms: _188  and  _190
REMARK   84  A    between atoms: _190  and  _191
REMARK   85  A    between atoms: _190  and  _193
REMARK   86  A    between atoms: _196  and  _198
REMARK   87  A    between atoms: _198  and  _199
REMARK   88  A    between atoms: _198  and  _201
REMARK   89  A    between atoms: _201  and  _202
REMARK   90  A    between atoms: _205  and  _207
REMARK   91  A    between atoms: _207  and  _208
REMARK   92  A    between atoms: _207  and  _210
REMARK   93  A    between atoms: _210  and  _211
REMARK   94  A    between atoms: _211  and  _212
REMARK   95  A    between atoms: _215  and  _217
REMARK   96  A    between atoms: _217  and  _218
REMARK   97  A    between atoms: _217  and  _220
REMARK   98  A    between atoms: _220  and  _221
REMARK   99  A    between atoms: _224  and  _226
REMARK  100  A    between atoms: _226  and  _227
REMARK  101  A    between atoms: _226  and  _229
REMARK  102  A    between atoms: _232  and  _234
REMARK  103  A    between atoms: _234  and  _235
REMARK  104  A    between atoms: _234  and  _237
REMARK  105  A    between atoms: _237  and  _238
REMARK  106  A    between atoms: _238  and  _239
REMARK  107  A    between atoms: _239  and  _240
REMARK  108  A    between atoms: _240  and  _241
REMARK  109  A    between atoms: _245  and  _247
REMARK  110  A    between atoms: _247  and  _248
REMARK  111  A    between atoms: _247  and  _250
REMARK  112  A    between atoms: _250  and  _251
REMARK  113  A    between atoms: _254  and  _256
REMARK  114  A    between atoms: _256  and  _257
REMARK  115  A    between atoms: _256  and  _259
REMARK  116  A    between atoms: _259  and  _260
REMARK  117  A    between atoms: _260  and  _261
REMARK  118  A    between atoms: _263  and  _265
REMARK  119  A    between atoms: _265  and  _266
REMARK  120  A    between atoms: _265  and  _268
REMARK  121  A    between atoms: _271  and  _273
REMARK  122  A    between atoms: _273  and  _274
REMARK  123  A    between atoms: _273  and  _276
REMARK  124  A    between atoms: _276  and  _277
REMARK  125  A    between atoms: _277  and  _278
REMARK  126  A    between atoms: _280  and  _282
REMARK  127  A    between atoms: _282  and  _283
REMARK  128  A    between atoms: _282  and  _285
REMARK  129  A    between atoms: _285  and  _286
REMARK  130  A    between atoms: _286  and  _287
REMARK  131  A    between atoms: _290  and  _292
REMARK  132  A    between atoms: _292  and  _293
REMARK  133  A    between atoms: _292  and  _295
REMARK  134  A    between atoms: _295  and  _296
REMARK  135  A    between atoms: _301  and  _302
REMARK  136  A    between atoms: _304  and  _306
REMARK  137  A    between atoms: _306  and  _307
REMARK  138  A    between atoms: _306  and  _309
REMARK  139  A    between atoms: _312  and  _314
REMARK  140  A    between atoms: _314  and  _315
REMARK  141  A    between atoms: _318  and  _320
REMARK  142  A    between atoms: _320  and  _321
REMARK  143  A    between atoms: _323  and  _325
REMARK  144  A    between atoms: _325  and  _326
REMARK  145  A    between atoms: _328  and  _330
REMARK  146  A    between atoms: _330  and  _331
REMARK  147  A    between atoms: _330  and  _333
REMARK  148  A    between atoms: _333  and  _334
REMARK  149  A    between atoms: _334  and  _335
REMARK  150  A    between atoms: _338  and  _340
REMARK  151  A    between atoms: _340  and  _341
REMARK  152  A    between atoms: _340  and  _343
REMARK  153  A    between atoms: _343  and  _344
REMARK  154  A    between atoms: _344  and  _345
REMARK  155  A    between atoms: _347  and  _349
REMARK  156  A    between atoms: _349  and  _350
REMARK  157  A    between atoms: _349  and  _352
REMARK  158  A    between atoms: _352  and  _353
REMARK  159  A    between atoms: _359  and  _361
REMARK  160  A    between atoms: _361  and  _362
REMARK  161  A    between atoms: _361  and  _364
REMARK  162  A    between atoms: _364  and  _365
REMARK  163  A    between atoms: _370  and  _371
REMARK  164  A    between atoms: _373  and  _375
REMARK  165  A    between atoms: _375  and  _376
REMARK  166  A    between atoms: _375  and  _378
REMARK  167  A    between atoms: _378  and  _379
REMARK  168  A    between atoms: _382  and  _384
REMARK  169  A    between atoms: _384  and  _385
REMARK  170  A    between atoms: _384  and  _387
REMARK  171  A    between atoms: _387  and  _388
REMARK  172  A    between atoms: _388  and  _389
REMARK  173  A    between atoms: _389  and  _390
REMARK  174  A    between atoms: _390  and  _391
REMARK  175  A    between atoms: _396  and  _397
REMARK  176  A    between atoms: _402  and  _404
REMARK  177  A    between atoms: _404  and  _405
REMARK  178  A    between atoms: _404  and  _407
REMARK  179  A    between atoms: _407  and  _408
REMARK  180  A    between atoms: _408  and  _409
REMARK  181  A    between atoms: _412  and  _414
REMARK  182  A    between atoms: _414  and  _415
REMARK  183  A    between atoms: _414  and  _417
REMARK  184  A    between atoms: _417  and  _418
REMARK  185  A    between atoms: _423  and  _425
REMARK  186  A    between atoms: _425  and  _426
REMARK  187  A    between atoms: _425  and  _428
REMARK  188  A    between atoms: _428  and  _429
REMARK  189  A    between atoms: _432  and  _434
REMARK  190  A    between atoms: _434  and  _435
REMARK  191  A    between atoms: _434  and  _437
REMARK  192  A    between atoms: _437  and  _438
REMARK  193  A    between atoms: _441  and  _443
REMARK  194  A    between atoms: _443  and  _444
REMARK  195  A    between atoms: _443  and  _446
REMARK  196  A    between atoms: _446  and  _447
REMARK  197  A    between atoms: _450  and  _452
REMARK  198  A    between atoms: _452  and  _453
REMARK  199  A    between atoms: _452  and  _455
REMARK  200  A    between atoms: _455  and  _456
REMARK  201  A    between atoms: _459  and  _461
REMARK  202  A    between atoms: _461  and  _462
REMARK  203  A    between atoms: _461  and  _464
REMARK  204  A    between atoms: _464  and  _465
REMARK  205  A    between atoms: _465  and  _466
REMARK  206  A    between atoms: _471  and  _473
REMARK  207  A    between atoms: _473  and  _474
REMARK  208  A    between atoms: _473  and  _476
REMARK  209  A    between atoms: _479  and  _481
REMARK  210  A    between atoms: _481  and  _482
REMARK  211  A    between atoms: _481  and  _484
REMARK  212  A    between atoms: _484  and  _485
REMARK  213  A    between atoms: _488  and  _490
REMARK  214  A    between atoms: _490  and  _491
REMARK  215  A    between atoms: _490  and  _493
REMARK  216  A    between atoms: _493  and  _494
REMARK  217  A    between atoms: _497  and  _499
REMARK  218  A    between atoms: _499  and  _500
REMARK  219  A    between atoms: _499  and  _502
REMARK  220  A    between atoms: _502  and  _503
REMARK  221  A    between atoms: _509  and  _511
REMARK  222  A    between atoms: _511  and  _512
REMARK  223  A    between atoms: _514  and  _516
REMARK  224  A    between atoms: _516  and  _517
REMARK  225  A    between atoms: _516  and  _519
REMARK  226  A    between atoms: _519  and  _520
REMARK  227  A    between atoms: _523  and  _525
REMARK  228  A    between atoms: _525  and  _526
REMARK  229  A    between atoms: _525  and  _528
REMARK  230  A    between atoms: _528  and  _529
REMARK  231  A    between atoms: _534  and  _536
REMARK  232  A    between atoms: _536  and  _537
REMARK  233  A    between atoms: _536  and  _539
REMARK  234  A    between atoms: _539  and  _540
REMARK  235  A    between atoms: _546  and  _548
REMARK  236  A    between atoms: _548  and  _549
REMARK  237  A    between atoms: _548  and  _551
REMARK  238  A    between atoms: _551  and  _552
REMARK  239  A    between atoms: _555  and  _557
REMARK  240  A    between atoms: _557  and  _558
REMARK  241  A    between atoms: _557  and  _560
REMARK  242  A    between atoms: _560  and  _561
REMARK  243  A    between atoms: _566  and  _567
REMARK  244  A    between atoms: _569  and  _571
REMARK  245  A    between atoms: _571  and  _572
REMARK  246  A    between atoms: _571  and  _574
REMARK  247  A    between atoms: _574  and  _575
REMARK  248  A    between atoms: _575  and  _576
REMARK  249  A    between atoms: _576  and  _577
REMARK  250  A    between atoms: _586  and  _588
REMARK  251  A    between atoms: _588  and  _589
REMARK  252  A    between atoms: _588  and  _591
REMARK  253  A    between atoms: _591  and  _592
REMARK  254  A    between atoms: _592  and  _593
REMARK  255  A    between atoms: _593  and  _594
REMARK  256  A    between atoms: _603  and  _605
REMARK  257  A    between atoms: _605  and  _606
REMARK  258  A    between atoms: _605  and  _608
REMARK  259  A    between atoms: _608  and  _609
REMARK  260  A    between atoms: _614  and  _616
REMARK  261  A    between atoms: _616  and  _617
REMARK                            x       y       z     vdW  Elec       q    Type
REMARK                         _______ _______ _______ _____ _____    ______ ____
ROOT
ATOM      1  CA  LEU A   1      23.682  15.640  -8.007  0.00  0.00    +0.133 C 
ENDROOT
BRANCH   1   2
ATOM      2  N   LEU A   1      23.589  17.075  -8.215  0.00  0.00    -0.239 NA
ATOM      3  H   LEU A   1      22.689  17.567  -8.044  0.00  0.00    +0.142 HD
ENDBRANCH   1   2
BRANCH   1   4
ATOM      4  C   LEU A   1      23.310  14.823  -9.232  0.00  0.00    +0.224 C 
ATOM      5  O   LEU A   1      23.214  13.589  -9.152  0.00  0.00    -0.287 OA
ENDBRANCH   1   4
BRANCH   1   6
ATOM      6  CB  LEU A   1      22.835  15.221  -6.803  0.00  0.00    +0.025 C 
BRANCH   6   7
ATOM      7  CG  LEU A   1      23.169  15.882  -5.461  0.00  0.00    +0.002 C 
ATOM      8  CD2 LEU A   1      22.409  15.172  -4.351  0.00  0.00    +0.000 C 
ATOM      9  CD1 LEU A   1      24.655  15.798  -5.189  0.00  0.00    +0.000 C 
ENDBRANCH   6   7
ENDBRANCH   1   6
TORSDOF 4
REMARK  Name = ../refined-set-2016/1ydt/1ydt_pocket.pdb
REMARK  261 active torsions:
REMARK  status: ('A' for Active; 'I' for Inactive)
REMARK    1  A    between atoms: _1  and  _3
REMARK    2  A    between atoms: _3  and  _4
REMARK    3  A    between atoms: _3  and  _6
REMARK    4  A    between atoms: _6  and  _7
REMARK    5  A    between atoms: _7  and  _8
REMARK    6  A    between atoms: _8  and  _9
REMARK    7  A    between atoms: _9  and  _10
REMARK    8  A    between atoms: _14  and  _16
REMARK    9  A    between atoms: _16  and  _17
REMARK   10  A    between atoms: _16  and  _19
REMARK   11  A    between atoms: _19  and  _20
REMARK   12  A    between atoms: _23  and  _25
REMARK   13  A    between atoms: _25  and  _26
REMARK   14  A    between atoms: _25  and  _28
REMARK   15  A    between atoms: _28  and  _29
REMARK   16  A    between atoms: _32  and  _34
REMARK   17  A    between atoms: _34  and  _35
REMARK   18  A    between atoms: _37  and  _39
REMARK   19  A    between atoms: _39  and  _40
REMARK   20  A    between atoms: _39  and  _42
REMARK   21  A    between atoms: _42  and  _43
REMARK   22  A    between atoms: _46  and  _48
REMARK   23  A    between atoms: _48  and  _49
REMARK   24  A    between atoms: _51  and  _53
REMARK   25  A    between atoms: _53  and  _54
REMARK   26  A    between atoms: _53  and  _56
REMARK   27  A    between atoms: _56  and  _57
REMARK   28  A    between atoms: _59  and  _61
REMARK   29  A    between atoms: _61  and  _62
REMARK   30  A    between atoms: _61  and  _64
REMARK   31  A    between atoms: _64  and  _65
REMARK   32  A    between atoms: _71  and  _73
REMARK   33  A    between atoms: _73  and  _74
REMARK   34  A    between atoms: _76  and  _78
REMARK   35  A    between atoms: _78  and  _79
REMARK   36  A    between atoms: _78  and  _81
REMARK   37  A    between atoms: _81  and  _82
REMARK   38  A    between atoms: _82  and  _83
REMARK   39  A    between atoms: _83  and  _84
REMARK   40  A    between atoms: _93  and  _95
REMARK   41  A    between atoms: _95  and  _96
REMARK   42  A    between atoms: _95  and  _98
REMARK   43  A    between atoms: _101  and  _103
REMARK   44  A    between atoms: _103  and  _104
REMARK   45  A    between atoms: _103  and  _106
REMARK   46  A    between atoms: _106  and  _107
REMARK   47  A    between atoms: _107  and  _108
REMARK   48  A    between atoms: _110  and  _112
REMARK   49  A    between atoms: _112  and  _113
REMARK   50  A    between atoms: _112  and  _115
REMARK   51  A    between atoms: _115  and  _116
REMARK   52  A    between atoms: _119  and  _121
REMARK   53  A    between atoms: _121  and  _122
REMARK   54  A    between atoms: _121  and  _124
REMARK   55  A    between atoms: _124  and  _125
REMARK   56  A    between atoms: _130  and  _131
REMARK   57  A    between atoms: _133  and  _135
REMARK   58  A    between atoms: _135  and  _136
REMARK   59  A    between atoms: _139  and  _141
REMARK   60  A    between atoms: _141  and  _142
REMARK   61  A    between atoms: _141  and  _144
REMARK   62  A    between atoms: _144  and  _145
REMARK   63  A    between atoms: _145  and  _146
REMARK   64  A    between atoms: _148  and  _150
REMARK   65  A    between atoms: _150  and  _151
REMARK   66  A    between atoms: _150  and  _153
REMARK   67  A    between atoms: _153  and  _154
REMARK   68  A    between atoms: _154  and  _155
REMARK   69  A    between atoms: _155  and  _156
REMARK   70  A    between atoms: _156  and  _157
REMARK   71  A    between atoms: _161  and  _163
REMARK   72  A    between atoms: _163  and  _164
REMARK   73  A    between atoms: _163  and  _166
REMARK   74  A    between atoms: _166  and  _167
REMARK   75  A    between atoms: _170  and  _172
REMARK   76  A    between atoms: _172  and  _173
REMARK   77  A    between atoms: _172  and  _175
REMARK   78  A    between atoms: _175  and  _176
REMARK   79  A    between atoms: _179  and  _181
REMARK   80  A    between atoms: _181  and  _182
REMARK   81  A    between atoms: _181  and  _184
REMARK   82  A    between atoms: _184  and  _185
REMARK   83  A    between atoms: _188  and  _190
REMARK   84  A    between atoms: _190  and  _191
REMARK   85  A    between atoms: _190  and  _193
REMARK   86  A    between atoms: _196  and  _198
REMARK   87  A    between atoms: _198  and  _199
REMARK   88  A    between atoms: _198  and  _201
REMARK   89  A    between atoms: _201  and  _202
REMARK   90  A    between atoms: _205  and  _207
REMARK   91  A    between atoms: _207  and  _208
REMARK   92  A    between atoms: _207  and  _210
REMARK   93  A    between atoms: _210  and  _211
REMARK   94  A    between atoms: _211  and  _212
REMARK   95  A    between atoms: _215  and  _217
REMARK   96  A    between atoms: _217  and  _218
REMARK   97  A    between atoms: _217  and  _220
REMARK   98  A    between atoms: _220  and  _221
REMARK   99  A    between atoms: _224  and  _226
REMARK  100  A    between atoms: _226  and  _227
REMARK  101  A    between atoms: _226  and  _229
REMARK  102  A    between atoms: _232  and  _234
REMARK  103  A    between atoms: _234  and  _235
REMARK  104  A    between atoms: _234  and  _237
REMARK  105  A    between atoms: _237  and  _238
REMARK  106  A    between atoms: _238  and  _239
REMARK  107  A    between atoms: _239  and  _240
REMARK  108  A    between atoms: _240  and  _241
REMARK  109  A    between atoms: _245  and  _247
REMARK  110  A    between atoms: _247  and  _248
REMARK  111  A    between atoms: _247  and  _250
REMARK  112  A    between atoms: _250  and  _251
REMARK  113  A    between atoms: _254  and  _256
REMARK  114  A    between atoms: _256  and  _257
REMARK  115  A    between atoms: _256  and  _259
REMARK  116  A    between atoms: _259  and  _260
REMARK  117  A    between atoms: _260  and  _261
REMARK  118  A    between atoms: _263  and  _265
REMARK  119  A    between atoms: _265  and  _266
REMARK  120  A    between atoms: _265  and  _268
REMARK  121  A    between atoms: _271  and  _273
REMARK  122  A    between atoms: _273  and  _274
REMARK  123  A    between atoms: _273  and  _276
REMARK  124  A    between atoms: _276  and  _277
REMARK  125  A    between atoms: _277  and  _278
REMARK  126  A    between atoms: _280  and  _282
REMARK  127  A    between atoms: _282  and  _283
REMARK  128  A    between atoms: _282  and  _285
REMARK  129  A    between atoms: _285  and  _286
REMARK  130  A    between atoms: _286  and  _287
REMARK  131  A    between atoms: _290  and  _292
REMARK  132  A    between atoms: _292  and  _293
REMARK  133  A    between atoms: _292  and  _295
REMARK  134  A    between atoms: _295  and  _296
REMARK  135  A    between atoms: _301  and  _302
REMARK  136  A    between atoms: _304  and  _306
REMARK  137  A    between atoms: _306  and  _307
REMARK  138  A    between atoms: _306  and  _309
REMARK  139  A    between atoms: _312  and  _314
REMARK  140  A    between atoms: _314  and  _315
REMARK  141  A    between atoms: _318  and  _320
REMARK  142  A    between atoms: _320  and  _321
REMARK  143  A    between atoms: _323  and  _325
REMARK  144  A    between atoms: _325  and  _326
REMARK  145  A    between atoms: _328  and  _330
REMARK  146  A    between atoms: _330  and  _331
REMARK  147  A    between atoms: _330  and  _333
REMARK  148  A    between atoms: _333  and  _334
REMARK  149  A    between atoms: _334  and  _335
REMARK  150  A    between atoms: _338  and  _340
REMARK  151  A    between atoms: _340  and  _341
REMARK  152  A    between atoms: _340  and  _343
REMARK  153  A    between atoms: _343  and  _344
REMARK  154  A    between atoms: _344  and  _345
REMARK  155  A    between atoms: _347  and  _349
REMARK  156  A    between atoms: _349  and  _350
REMARK  157  A    between atoms: _349  and  _352
REMARK  158  A    between atoms: _352  and  _353
REMARK  159  A    between atoms: _359  and  _361
REMARK  160  A    between atoms: _361  and  _362
REMARK  161  A    between atoms: _361  and  _364
REMARK  162  A    between atoms: _364  and  _365
REMARK  163  A    between atoms: _370  and  _371
REMARK  164  A    between atoms: _373  and  _375
REMARK  165  A    between atoms: _375  and  _376
REMARK  166  A    between atoms: _375  and  _378
REMARK  167  A    between atoms: _378  and  _379
REMARK  168  A    between atoms: _382  and  _384
REMARK  169  A    between atoms: _384  and  _385
REMARK  170  A    between atoms: _384  and  _387
REMARK  171  A    between atoms: _387  and  _388
REMARK  172  A    between atoms: _388  and  _389
REMARK  173  A    between atoms: _389  and  _390
REMARK  174  A    between atoms: _390  and  _391
REMARK  175  A    between atoms: _396  and  _397
REMARK  176  A    between atoms: _402  and  _404
REMARK  177  A    between atoms: _404  and  _405
REMARK  178  A    between atoms: _404  and  _407
REMARK  179  A    between atoms: _407  and  _408
REMARK  180  A    between atoms: _408  and  _409
REMARK  181  A    between atoms: _412  and  _414
REMARK  182  A    between atoms: _414  and  _415
REMARK  183  A    between atoms: _414  and  _417
REMARK  184  A    between atoms: _417  and  _418
REMARK  185  A    between atoms: _423  and  _425
REMARK  186  A    between atoms: _425  and  _426
REMARK  187  A    between atoms: _425  and  _428
REMARK  188  A    between atoms: _428  and  _429
REMARK  189  A    between atoms: _432  and  _434
REMARK  190  A    between atoms: _434  and  _435
REMARK  191  A    between atoms: _434  and  _437
REMARK  192  A    between atoms: _437  and  _438
REMARK  193  A    between atoms: _441  and  _443
REMARK  194  A    between atoms: _443  and  _444
REMARK  195  A    between atoms: _443  and  _446
REMARK  196  A    between atoms: _446  and  _447
REMARK  197  A    between atoms: _450  and  _452
REMARK  198  A    between atoms: _452  and  _453
REMARK  199  A    between atoms: _452  and  _455
REMARK  200  A    between atoms: _455  and  _456
REMARK  201  A    between atoms: _459  and  _461
REMARK  202  A    between atoms: _461  and  _462
REMARK  203  A    between atoms: _461  and  _464
REMARK  204  A    between atoms: _464  and  _465
REMARK  205  A    between atoms: _465  and  _466
REMARK  206  A    between atoms: _471  and  _473
REMARK  207  A    between atoms: _473  and  _474
REMARK  208  A    between atoms: _473  and  _476
REMARK  209  A    between atoms: _479  and  _481
REMARK  210  A    between atoms: _481  and  _482
REMARK  211  A    between atoms: _481  and  _484
REMARK  212  A    between atoms: _484  and  _485
REMARK  213  A    between atoms: _488  and  _490
REMARK  214  A    between atoms: _490  and  _491
REMARK  215  A    between atoms: _490  and  _493
REMARK  216  A    between atoms: _493  and  _494
REMARK  217  A    between atoms: _497  and  _499
REMARK  218  A    between atoms: _499  and  _500
REMARK  219  A    between atoms: _499  and  _502
REMARK  220  A    between atoms: _502  and  _503
REMARK  221  A    between atoms: _509  and  _511
REMARK  222  A    between atoms: _511  and  _512
REMARK  223  A    between atoms: _514  and  _516
REMARK  224  A    between atoms: _516  and  _517
REMARK  225  A    between atoms: _516  and  _519
REMARK  226  A    between atoms: _519  and  _520
REMARK  227  A    between atoms: _523  and  _525
REMARK  228  A    between atoms: _525  and  _526
REMARK  229  A    between atoms: _525  and  _528
REMARK  230  A    between atoms: _528  and  _529
REMARK  231  A    between atoms: _534  and  _536
REMARK  232  A    between atoms: _536  and  _537
REMARK  233  A    between atoms: _536  and  _539
REMARK  234  A    between atoms: _539  and  _540
REMARK  235  A    between atoms: _546  and  _548
REMARK  236  A    between atoms: _548  and  _549
REMARK  237  A    between atoms: _548  and  _551
REMARK  238  A    between atoms: _551  and  _552
REMARK  239  A    between atoms: _555  and  _557
REMARK  240  A    between atoms: _557  and  _558
REMARK  241  A    between atoms: _557  and  _560
REMARK  242  A    between atoms: _560  and  _561
REMARK  243  A    between atoms: _566  and  _567
REMARK  244  A    between atoms: _569  and  _571
REMARK  245  A    between atoms: _571  and  _572
REMARK  246  A    between atoms: _571  and  _574
REMARK  247  A    between atoms: _574  and  _575
REMARK  248  A    between atoms: _575  and  _576
REMARK  249  A    between atoms: _576  and  _577
REMARK  250  A    between atoms: _586  and  _588
REMARK  251  A    between atoms: _588  and  _589
REMARK  252  A    between atoms: _588  and  _591
REMARK  253  A    between atoms: _591  and  _592
REMARK  254  A    between atoms: _592  and  _593
REMARK  255  A    between atoms: _593  and  _594
REMARK  256  A    between atoms: _603  and  _605
REMARK  257  A    between atoms: _605  and  _606
REMARK  258  A    between atoms: _605  and  _608
REMARK  259  A    between atoms: _608  and  _609
REMARK  260  A    between atoms: _614  and  _616
REMARK  261  A    between atoms: _616  and  _617
REMARK                            x       y       z     vdW  Elec       q    Type
REMARK                         _______ _______ _______ _____ _____    ______ ____
ROOT
ATOM      1  CA  GLU A   1       9.398  10.078 -10.561  0.00  0.00    +0.134 C 
ENDROOT
BRANCH   1   2
ATOM      2  N   GLU A   1      10.173  10.124 -11.791  0.00  0.00    -0.239 NA
ATOM      3  H   GLU A   1      11.122  10.548 -11.765  0.00  0.00    +0.142 HD
ENDBRANCH   1   2
BRANCH   1   4
ATOM      4  C   GLU A   1       8.012  10.712 -10.667  0.00  0.00    +0.224 C 
ATOM      5  O   GLU A   1       7.012  10.058 -10.403  0.00  0.00    -0.287 OA
ENDBRANCH   1   4
BRANCH   1   6
ATOM      6  CB  GLU A   1      10.198  10.734  -9.450  0.00  0.00    +0.037 C 
BRANCH   6   7
ATOM      7  CG  GLU A   1       9.413  10.849  -8.201  0.00  0.00    +0.116 C 
BRANCH   7   8
ATOM      8  CD  GLU A   1      10.285  11.061  -7.024  0.00  0.00    +0.365 C 
ATOM      9  OE2 GLU A   1      10.040  10.374  -6.023  0.00  0.00    -0.246 OA
ATOM     10  OE1 GLU A   1      11.211  11.892  -7.109  0.00  0.00    -0.246 OA
ENDBRANCH   7   8
ENDBRANCH   6   7
ENDBRANCH   1   6
TORSDOF 5
REMARK  Name = ../refined-set-2016/1ydt/1ydt_pocket.pdb
REMARK  261 active torsions:
REMARK  status: ('A' for Active; 'I' for Inactive)
REMARK    1  A    between atoms: _1  and  _3
REMARK    2  A    between atoms: _3  and  _4
REMARK    3  A    between atoms: _3  and  _6
REMARK    4  A    between atoms: _6  and  _7
REMARK    5  A    between atoms: _7  and  _8
REMARK    6  A    between atoms: _8  and  _9
REMARK    7  A    between atoms: _9  and  _10
REMARK    8  A    between atoms: _14  and  _16
REMARK    9  A    between atoms: _16  and  _17
REMARK   10  A    between atoms: _16  and  _19
REMARK   11  A    between atoms: _19  and  _20
REMARK   12  A    between atoms: _23  and  _25
REMARK   13  A    between atoms: _25  and  _26
REMARK   14  A    between atoms: _25  and  _28
REMARK   15  A    between atoms: _28  and  _29
REMARK   16  A    between atoms: _32  and  _34
REMARK   17  A    between atoms: _34  and  _35
REMARK   18  A    between atoms: _37  and  _39
REMARK   19  A    between atoms: _39  and  _40
REMARK   20  A    between atoms: _39  and  _42
REMARK   21  A    between atoms: _42  and  _43
REMARK   22  A    between atoms: _46  and  _48
REMARK   23  A    between atoms: _48  and  _49
REMARK   24  A    between atoms: _51  and  _53
REMARK   25  A    between atoms: _53  and  _54
REMARK   26  A    between atoms: _53  and  _56
REMARK   27  A    between atoms: _56  and  _57
REMARK   28  A    between atoms: _59  and  _61
REMARK   29  A    between atoms: _61  and  _62
REMARK   30  A    between atoms: _61  and  _64
REMARK   31  A    between atoms: _64  and  _65
REMARK   32  A    between atoms: _71  and  _73
REMARK   33  A    between atoms: _73  and  _74
REMARK   34  A    between atoms: _76  and  _78
REMARK   35  A    between atoms: _78  and  _79
REMARK   36  A    between atoms: _78  and  _81
REMARK   37  A    between atoms: _81  and  _82
REMARK   38  A    between atoms: _82  and  _83
REMARK   39  A    between atoms: _83  and  _84
REMARK   40  A    between atoms: _93  and  _95
REMARK   41  A    between atoms: _95  and  _96
REMARK   42  A    between atoms: _95  and  _98
REMARK   43  A    between atoms: _101  and  _103
REMARK   44  A    between atoms: _103  and  _104
REMARK   45  A    between atoms: _103  and  _106
REMARK   46  A    between atoms: _106  and  _107
REMARK   47  A    between atoms: _107  and  _108
REMARK   48  A    between atoms: _110  and  _112
REMARK   49  A    between atoms: _112  and  _113
REMARK   50  A    between atoms: _112  and  _115
REMARK   51  A    between atoms: _115  and  _116
REMARK   52  A    between atoms: _119  and  _121
REMARK   53  A    between atoms: _121  and  _122
REMARK   54  A    between atoms: _121  and  _124
REMARK   55  A    between atoms: _124  and  _125
REMARK   56  A    between atoms: _130  and  _131
REMARK   57  A    between atoms: _133  and  _135
REMARK   58  A    between atoms: _135  and  _136
REMARK   59  A    between atoms: _139  and  _141
REMARK   60  A    between atoms: _141  and  _142
REMARK   61  A    between atoms: _141  and  _144
REMARK   62  A    between atoms: _144  and  _145
REMARK   63  A    between atoms: _145  and  _146
REMARK   64  A    between atoms: _148  and  _150
REMARK   65  A    between atoms: _150  and  _151
REMARK   66  A    between atoms: _150  and  _153
REMARK   67  A    between atoms: _153  and  _154
REMARK   68  A    between atoms: _154  and  _155
REMARK   69  A    between atoms: _155  and  _156
REMARK   70  A    between atoms: _156  and  _157
REMARK   71  A    between atoms: _161  and  _163
REMARK   72  A    between atoms: _163  and  _164
REMARK   73  A    between atoms: _163  and  _166
REMARK   74  A    between atoms: _166  and  _167
REMARK   75  A    between atoms: _170  and  _172
REMARK   76  A    between atoms: _172  and  _173
REMARK   77  A    between atoms: _172  and  _175
REMARK   78  A    between atoms: _175  and  _176
REMARK   79  A    between atoms: _179  and  _181
REMARK   80  A    between atoms: _181  and  _182
REMARK   81  A    between atoms: _181  and  _184
REMARK   82  A    between atoms: _184  and  _185
REMARK   83  A    between atoms: _188  and  _190
REMARK   84  A    between atoms: _190  and  _191
REMARK   85  A    between atoms: _190  and  _193
REMARK   86  A    between atoms: _196  and  _198
REMARK   87  A    between atoms: _198  and  _199
REMARK   88  A    between atoms: _198  and  _201
REMARK   89  A    between atoms: _201  and  _202
REMARK   90  A    between atoms: _205  and  _207
REMARK   91  A    between atoms: _207  and  _208
REMARK   92  A    between atoms: _207  and  _210
REMARK   93  A    between atoms: _210  and  _211
REMARK   94  A    between atoms: _211  and  _212
REMARK   95  A    between atoms: _215  and  _217
REMARK   96  A    between atoms: _217  and  _218
REMARK   97  A    between atoms: _217  and  _220
REMARK   98  A    between atoms: _220  and  _221
REMARK   99  A    between atoms: _224  and  _226
REMARK  100  A    between atoms: _226  and  _227
REMARK  101  A    between atoms: _226  and  _229
REMARK  102  A    between atoms: _232  and  _234
REMARK  103  A    between atoms: _234  and  _235
REMARK  104  A    between atoms: _234  and  _237
REMARK  105  A    between atoms: _237  and  _238
REMARK  106  A    between atoms: _238  and  _239
REMARK  107  A    between atoms: _239  and  _240
REMARK  108  A    between atoms: _240  and  _241
REMARK  109  A    between atoms: _245  and  _247
REMARK  110  A    between atoms: _247  and  _248
REMARK  111  A    between atoms: _247  and  _250
REMARK  112  A    between atoms: _250  and  _251
REMARK  113  A    between atoms: _254  and  _256
REMARK  114  A    between atoms: _256  and  _257
REMARK  115  A    between atoms: _256  and  _259
REMARK  116  A    between atoms: _259  and  _260
REMARK  117  A    between atoms: _260  and  _261
REMARK  118  A    between atoms: _263  and  _265
REMARK  119  A    between atoms: _265  and  _266
REMARK  120  A    between atoms: _265  and  _268
REMARK  121  A    between atoms: _271  and  _273
REMARK  122  A    between atoms: _273  and  _274
REMARK  123  A    between atoms: _273  and  _276
REMARK  124  A    between atoms: _276  and  _277
REMARK  125  A    between atoms: _277  and  _278
REMARK  126  A    between atoms: _280  and  _282
REMARK  127  A    between atoms: _282  and  _283
REMARK  128  A    between atoms: _282  and  _285
REMARK  129  A    between atoms: _285  and  _286
REMARK  130  A    between atoms: _286  and  _287
REMARK  131  A    between atoms: _290  and  _292
REMARK  132  A    between atoms: _292  and  _293
REMARK  133  A    between atoms: _292  and  _295
REMARK  134  A    between atoms: _295  and  _296
REMARK  135  A    between atoms: _301  and  _302
REMARK  136  A    between atoms: _304  and  _306
REMARK  137  A    between atoms: _306  and  _307
REMARK  138  A    between atoms: _306  and  _309
REMARK  139  A    between atoms: _312  and  _314
REMARK  140  A    between atoms: _314  and  _315
REMARK  141  A    between atoms: _318  and  _320
REMARK  142  A    between atoms: _320  and  _321
REMARK  143  A    between atoms: _323  and  _325
REMARK  144  A    between atoms: _325  and  _326
REMARK  145  A    between atoms: _328  and  _330
REMARK  146  A    between atoms: _330  and  _331
REMARK  147  A    between atoms: _330  and  _333
REMARK  148  A    between atoms: _333  and  _334
REMARK  149  A    between atoms: _334  and  _335
REMARK  150  A    between atoms: _338  and  _340
REMARK  151  A    between atoms: _340  and  _341
REMARK  152  A    between atoms: _340  and  _343
REMARK  153  A    between atoms: _343  and  _344
REMARK  154  A    between atoms: _344  and  _345
REMARK  155  A    between atoms: _347  and  _349
REMARK  156  A    between atoms: _349  and  _350
REMARK  157  A    between atoms: _349  and  _352
REMARK  158  A    between atoms: _352  and  _353
REMARK  159  A    between atoms: _359  and  _361
REMARK  160  A    between atoms: _361  and  _362
REMARK  161  A    between atoms: _361  and  _364
REMARK  162  A    between atoms: _364  and  _365
REMARK  163  A    between atoms: _370  and  _371
REMARK  164  A    between atoms: _373  and  _375
REMARK  165  A    between atoms: _375  and  _376
REMARK  166  A    between atoms: _375  and  _378
REMARK  167  A    between atoms: _378  and  _379
REMARK  168  A    between atoms: _382  and  _384
REMARK  169  A    between atoms: _384  and  _385
REMARK  170  A    between atoms: _384  and  _387
REMARK  171  A    between atoms: _387  and  _388
REMARK  172  A    between atoms: _388  and  _389
REMARK  173  A    between atoms: _389  and  _390
REMARK  174  A    between atoms: _390  and  _391
REMARK  175  A    between atoms: _396  and  _397
REMARK  176  A    between atoms: _402  and  _404
REMARK  177  A    between atoms: _404  and  _405
REMARK  178  A    between atoms: _404  and  _407
REMARK  179  A    between atoms: _407  and  _408
REMARK  180  A    between atoms: _408  and  _409
REMARK  181  A    between atoms: _412  and  _414
REMARK  182  A    between atoms: _414  and  _415
REMARK  183  A    between atoms: _414  and  _417
REMARK  184  A    between atoms: _417  and  _418
REMARK  185  A    between atoms: _423  and  _425
REMARK  186  A    between atoms: _425  and  _426
REMARK  187  A    between atoms: _425  and  _428
REMARK  188  A    between atoms: _428  and  _429
REMARK  189  A    between atoms: _432  and  _434
REMARK  190  A    between atoms: _434  and  _435
REMARK  191  A    between atoms: _434  and  _437
REMARK  192  A    between atoms: _437  and  _438
REMARK  193  A    between atoms: _441  and  _443
REMARK  194  A    between atoms: _443  and  _444
REMARK  195  A    between atoms: _443  and  _446
REMARK  196  A    between atoms: _446  and  _447
REMARK  197  A    between atoms: _450  and  _452
REMARK  198  A    between atoms: _452  and  _453
REMARK  199  A    between atoms: _452  and  _455
REMARK  200  A    between atoms: _455  and  _456
REMARK  201  A    between atoms: _459  and  _461
REMARK  202  A    between atoms: _461  and  _462
REMARK  203  A    between atoms: _461  and  _464
REMARK  204  A    between atoms: _464  and  _465
REMARK  205  A    between atoms: _465  and  _466
REMARK  206  A    between atoms: _471  and  _473
REMARK  207  A    between atoms: _473  and  _474
REMARK  208  A    between atoms: _473  and  _476
REMARK  209  A    between atoms: _479  and  _481
REMARK  210  A    between atoms: _481  and  _482
REMARK  211  A    between atoms: _481  and  _484
REMARK  212  A    between atoms: _484  and  _485
REMARK  213  A    between atoms: _488  and  _490
REMARK  214  A    between atoms: _490  and  _491
REMARK  215  A    between atoms: _490  and  _493
REMARK  216  A    between atoms: _493  and  _494
REMARK  217  A    between atoms: _497  and  _499
REMARK  218  A    between atoms: _499  and  _500
REMARK  219  A    between atoms: _499  and  _502
REMARK  220  A    between atoms: _502  and  _503
REMARK  221  A    between atoms: _509  and  _511
REMARK  222  A    between atoms: _511  and  _512
REMARK  223  A    between atoms: _514  and  _516
REMARK  224  A    between atoms: _516  and  _517
REMARK  225  A    between atoms: _516  and  _519
REMARK  226  A    between atoms: _519  and  _520
REMARK  227  A    between atoms: _523  and  _525
REMARK  228  A    between atoms: _525  and  _526
REMARK  229  A    between atoms: _525  and  _528
REMARK  230  A    between atoms: _528  and  _529
REMARK  231  A    between atoms: _534  and  _536
REMARK  232  A    between atoms: _536  and  _537
REMARK  233  A    between atoms: _536  and  _539
REMARK  234  A    between atoms: _539  and  _540
REMARK  235  A    between atoms: _546  and  _548
REMARK  236  A    between atoms: _548  and  _549
REMARK  237  A    between atoms: _548  and  _551
REMARK  238  A    between atoms: _551  and  _552
REMARK  239  A    between atoms: _555  and  _557
REMARK  240  A    between atoms: _557  and  _558
REMARK  241  A    between atoms: _557  and  _560
REMARK  242  A    between atoms: _560  and  _561
REMARK  243  A    between atoms: _566  and  _567
REMARK  244  A    between atoms: _569  and  _571
REMARK  245  A    between atoms: _571  and  _572
REMARK  246  A    between atoms: _571  and  _574
REMARK  247  A    between atoms: _574  and  _575
REMARK  248  A    between atoms: _575  and  _576
REMARK  249  A    between atoms: _576  and  _577
REMARK  250  A    between atoms: _586  and  _588
REMARK  251  A    between atoms: _588  and  _589
REMARK  252  A    between atoms: _588  and  _591
REMARK  253  A    between atoms: _591  and  _592
REMARK  254  A    between atoms: _592  and  _593
REMARK  255  A    between atoms: _593  and  _594
REMARK  256  A    between atoms: _603  and  _605
REMARK  257  A    between atoms: _605  and  _606
REMARK  258  A    between atoms: _605  and  _608
REMARK  259  A    between atoms: _608  and  _609
REMARK  260  A    between atoms: _614  and  _616
REMARK  261  A    between atoms: _616  and  _617
REMARK                            x       y       z     vdW  Elec       q    Type
REMARK                         _______ _______ _______ _____ _____    ______ ____
ROOT
ATOM      1  CA  LEU A   1       3.714   8.724 -10.054  0.00  0.00    +0.133 C 
ENDROOT
BRANCH   1   2
ATOM      2  N   LEU A   1       4.599   8.584 -11.212  0.00  0.00    -0.239 NA
ATOM      3  H   LEU A   1       5.439   9.193 -11.289  0.00  0.00    +0.142 HD
ENDBRANCH   1   2
BRANCH   1   4
ATOM      4  C   LEU A   1       2.323   9.208 -10.367  0.00  0.00    +0.224 C 
ATOM      5  O   LEU A   1       1.341   8.761  -9.756  0.00  0.00    -0.287 OA
ENDBRANCH   1   4
BRANCH   1   6
ATOM      6  CB  LEU A   1       4.327   9.633  -8.993  0.00  0.00    +0.025 C 
BRANCH   6   7
ATOM      7  CG  LEU A   1       4.759   9.025  -7.654  0.00  0.00    +0.002 C 
ATOM      8  CD2 LEU A   1       4.453  10.069  -6.604  0.00  0.00    +0.000 C 
ATOM      9  CD1 LEU A   1       4.012   7.742  -7.306  0.00  0.00    +0.000 C 
ENDBRANCH   6   7
ENDBRANCH   1   6
TORSDOF 4
REMARK  Name = ../refined-set-2016/1ydt/1ydt_pocket.pdb
REMARK  261 active torsions:
REMARK  status: ('A' for Active; 'I' for Inactive)
REMARK    1  A    between atoms: _1  and  _3
REMARK    2  A    between atoms: _3  and  _4
REMARK    3  A    between atoms: _3  and  _6
REMARK    4  A    between atoms: _6  and  _7
REMARK    5  A    between atoms: _7  and  _8
REMARK    6  A    between atoms: _8  and  _9
REMARK    7  A    between atoms: _9  and  _10
REMARK    8  A    between atoms: _14  and  _16
REMARK    9  A    between atoms: _16  and  _17
REMARK   10  A    between atoms: _16  and  _19
REMARK   11  A    between atoms: _19  and  _20
REMARK   12  A    between atoms: _23  and  _25
REMARK   13  A    between atoms: _25  and  _26
REMARK   14  A    between atoms: _25  and  _28
REMARK   15  A    between atoms: _28  and  _29
REMARK   16  A    between atoms: _32  and  _34
REMARK   17  A    between atoms: _34  and  _35
REMARK   18  A    between atoms: _37  and  _39
REMARK   19  A    between atoms: _39  and  _40
REMARK   20  A    between atoms: _39  and  _42
REMARK   21  A    between atoms: _42  and  _43
REMARK   22  A    between atoms: _46  and  _48
REMARK   23  A    between atoms: _48  and  _49
REMARK   24  A    between atoms: _51  and  _53
REMARK   25  A    between atoms: _53  and  _54
REMARK   26  A    between atoms: _53  and  _56
REMARK   27  A    between atoms: _56  and  _57
REMARK   28  A    between atoms: _59  and  _61
REMARK   29  A    between atoms: _61  and  _62
REMARK   30  A    between atoms: _61  and  _64
REMARK   31  A    between atoms: _64  and  _65
REMARK   32  A    between atoms: _71  and  _73
REMARK   33  A    between atoms: _73  and  _74
REMARK   34  A    between atoms: _76  and  _78
REMARK   35  A    between atoms: _78  and  _79
REMARK   36  A    between atoms: _78  and  _81
REMARK   37  A    between atoms: _81  and  _82
REMARK   38  A    between atoms: _82  and  _83
REMARK   39  A    between atoms: _83  and  _84
REMARK   40  A    between atoms: _93  and  _95
REMARK   41  A    between atoms: _95  and  _96
REMARK   42  A    between atoms: _95  and  _98
REMARK   43  A    between atoms: _101  and  _103
REMARK   44  A    between atoms: _103  and  _104
REMARK   45  A    between atoms: _103  and  _106
REMARK   46  A    between atoms: _106  and  _107
REMARK   47  A    between atoms: _107  and  _108
REMARK   48  A    between atoms: _110  and  _112
REMARK   49  A    between atoms: _112  and  _113
REMARK   50  A    between atoms: _112  and  _115
REMARK   51  A    between atoms: _115  and  _116
REMARK   52  A    between atoms: _119  and  _121
REMARK   53  A    between atoms: _121  and  _122
REMARK   54  A    between atoms: _121  and  _124
REMARK   55  A    between atoms: _124  and  _125
REMARK   56  A    between atoms: _130  and  _131
REMARK   57  A    between atoms: _133  and  _135
REMARK   58  A    between atoms: _135  and  _136
REMARK   59  A    between atoms: _139  and  _141
REMARK   60  A    between atoms: _141  and  _142
REMARK   61  A    between atoms: _141  and  _144
REMARK   62  A    between atoms: _144  and  _145
REMARK   63  A    between atoms: _145  and  _146
REMARK   64  A    between atoms: _148  and  _150
REMARK   65  A    between atoms: _150  and  _151
REMARK   66  A    between atoms: _150  and  _153
REMARK   67  A    between atoms: _153  and  _154
REMARK   68  A    between atoms: _154  and  _155
REMARK   69  A    between atoms: _155  and  _156
REMARK   70  A    between atoms: _156  and  _157
REMARK   71  A    between atoms: _161  and  _163
REMARK   72  A    between atoms: _163  and  _164
REMARK   73  A    between atoms: _163  and  _166
REMARK   74  A    between atoms: _166  and  _167
REMARK   75  A    between atoms: _170  and  _172
REMARK   76  A    between atoms: _172  and  _173
REMARK   77  A    between atoms: _172  and  _175
REMARK   78  A    between atoms: _175  and  _176
REMARK   79  A    between atoms: _179  and  _181
REMARK   80  A    between atoms: _181  and  _182
REMARK   81  A    between atoms: _181  and  _184
REMARK   82  A    between atoms: _184  and  _185
REMARK   83  A    between atoms: _188  and  _190
REMARK   84  A    between atoms: _190  and  _191
REMARK   85  A    between atoms: _190  and  _193
REMARK   86  A    between atoms: _196  and  _198
REMARK   87  A    between atoms: _198  and  _199
REMARK   88  A    between atoms: _198  and  _201
REMARK   89  A    between atoms: _201  and  _202
REMARK   90  A    between atoms: _205  and  _207
REMARK   91  A    between atoms: _207  and  _208
REMARK   92  A    between atoms: _207  and  _210
REMARK   93  A    between atoms: _210  and  _211
REMARK   94  A    between atoms: _211  and  _212
REMARK   95  A    between atoms: _215  and  _217
REMARK   96  A    between atoms: _217  and  _218
REMARK   97  A    between atoms: _217  and  _220
REMARK   98  A    between atoms: _220  and  _221
REMARK   99  A    between atoms: _224  and  _226
REMARK  100  A    between atoms: _226  and  _227
REMARK  101  A    between atoms: _226  and  _229
REMARK  102  A    between atoms: _232  and  _234
REMARK  103  A    between atoms: _234  and  _235
REMARK  104  A    between atoms: _234  and  _237
REMARK  105  A    between atoms: _237  and  _238
REMARK  106  A    between atoms: _238  and  _239
REMARK  107  A    between atoms: _239  and  _240
REMARK  108  A    between atoms: _240  and  _241
REMARK  109  A    between atoms: _245  and  _247
REMARK  110  A    between atoms: _247  and  _248
REMARK  111  A    between atoms: _247  and  _250
REMARK  112  A    between atoms: _250  and  _251
REMARK  113  A    between atoms: _254  and  _256
REMARK  114  A    between atoms: _256  and  _257
REMARK  115  A    between atoms: _256  and  _259
REMARK  116  A    between atoms: _259  and  _260
REMARK  117  A    between atoms: _260  and  _261
REMARK  118  A    between atoms: _263  and  _265
REMARK  119  A    between atoms: _265  and  _266
REMARK  120  A    between atoms: _265  and  _268
REMARK  121  A    between atoms: _271  and  _273
REMARK  122  A    between atoms: _273  and  _274
REMARK  123  A    between atoms: _273  and  _276
REMARK  124  A    between atoms: _276  and  _277
REMARK  125  A    between atoms: _277  and  _278
REMARK  126  A    between atoms: _280  and  _282
REMARK  127  A    between atoms: _282  and  _283
REMARK  128  A    between atoms: _282  and  _285
REMARK  129  A    between atoms: _285  and  _286
REMARK  130  A    between atoms: _286  and  _287
REMARK  131  A    between atoms: _290  and  _292
REMARK  132  A    between atoms: _292  and  _293
REMARK  133  A    between atoms: _292  and  _295
REMARK  134  A    between atoms: _295  and  _296
REMARK  135  A    between atoms: _301  and  _302
REMARK  136  A    between atoms: _304  and  _306
REMARK  137  A    between atoms: _306  and  _307
REMARK  138  A    between atoms: _306  and  _309
REMARK  139  A    between atoms: _312  and  _314
REMARK  140  A    between atoms: _314  and  _315
REMARK  141  A    between atoms: _318  and  _320
REMARK  142  A    between atoms: _320  and  _321
REMARK  143  A    between atoms: _323  and  _325
REMARK  144  A    between atoms: _325  and  _326
REMARK  145  A    between atoms: _328  and  _330
REMARK  146  A    between atoms: _330  and  _331
REMARK  147  A    between atoms: _330  and  _333
REMARK  148  A    between atoms: _333  and  _334
REMARK  149  A    between atoms: _334  and  _335
REMARK  150  A    between atoms: _338  and  _340
REMARK  151  A    between atoms: _340  and  _341
REMARK  152  A    between atoms: _340  and  _343
REMARK  153  A    between atoms: _343  and  _344
REMARK  154  A    between atoms: _344  and  _345
REMARK  155  A    between atoms: _347  and  _349
REMARK  156  A    between atoms: _349  and  _350
REMARK  157  A    between atoms: _349  and  _352
REMARK  158  A    between atoms: _352  and  _353
REMARK  159  A    between atoms: _359  and  _361
REMARK  160  A    between atoms: _361  and  _362
REMARK  161  A    between atoms: _361  and  _364
REMARK  162  A    between atoms: _364  and  _365
REMARK  163  A    between atoms: _370  and  _371
REMARK  164  A    between atoms: _373  and  _375
REMARK  165  A    between atoms: _375  and  _376
REMARK  166  A    between atoms: _375  and  _378
REMARK  167  A    between atoms: _378  and  _379
REMARK  168  A    between atoms: _382  and  _384
REMARK  169  A    between atoms: _384  and  _385
REMARK  170  A    between atoms: _384  and  _387
REMARK  171  A    between atoms: _387  and  _388
REMARK  172  A    between atoms: _388  and  _389
REMARK  173  A    between atoms: _389  and  _390
REMARK  174  A    between atoms: _390  and  _391
REMARK  175  A    between atoms: _396  and  _397
REMARK  176  A    between atoms: _402  and  _404
REMARK  177  A    between atoms: _404  and  _405
REMARK  178  A    between atoms: _404  and  _407
REMARK  179  A    between atoms: _407  and  _408
REMARK  180  A    between atoms: _408  and  _409
REMARK  181  A    between atoms: _412  and  _414
REMARK  182  A    between atoms: _414  and  _415
REMARK  183  A    between atoms: _414  and  _417
REMARK  184  A    between atoms: _417  and  _418
REMARK  185  A    between atoms: _423  and  _425
REMARK  186  A    between atoms: _425  and  _426
REMARK  187  A    between atoms: _425  and  _428
REMARK  188  A    between atoms: _428  and  _429
REMARK  189  A    between atoms: _432  and  _434
REMARK  190  A    between atoms: _434  and  _435
REMARK  191  A    between atoms: _434  and  _437
REMARK  192  A    between atoms: _437  and  _438
REMARK  193  A    between atoms: _441  and  _443
REMARK  194  A    between atoms: _443  and  _444
REMARK  195  A    between atoms: _443  and  _446
REMARK  196  A    between atoms: _446  and  _447
REMARK  197  A    between atoms: _450  and  _452
REMARK  198  A    between atoms: _452  and  _453
REMARK  199  A    between atoms: _452  and  _455
REMARK  200  A    between atoms: _455  and  _456
REMARK  201  A    between atoms: _459  and  _461
REMARK  202  A    between atoms: _461  and  _462
REMARK  203  A    between atoms: _461  and  _464
REMARK  204  A    between atoms: _464  and  _465
REMARK  205  A    between atoms: _465  and  _466
REMARK  206  A    between atoms: _471  and  _473
REMARK  207  A    between atoms: _473  and  _474
REMARK  208  A    between atoms: _473  and  _476
REMARK  209  A    between atoms: _479  and  _481
REMARK  210  A    between atoms: _481  and  _482
REMARK  211  A    between atoms: _481  and  _484
REMARK  212  A    between atoms: _484  and  _485
REMARK  213  A    between atoms: _488  and  _490
REMARK  214  A    between atoms: _490  and  _491
REMARK  215  A    between atoms: _490  and  _493
REMARK  216  A    between atoms: _493  and  _494
REMARK  217  A    between atoms: _497  and  _499
REMARK  218  A    between atoms: _499  and  _500
REMARK  219  A    between atoms: _499  and  _502
REMARK  220  A    between atoms: _502  and  _503
REMARK  221  A    between atoms: _509  and  _511
REMARK  222  A    between atoms: _511  and  _512
REMARK  223  A    between atoms: _514  and  _516
REMARK  224  A    between atoms: _516  and  _517
REMARK  225  A    between atoms: _516  and  _519
REMARK  226  A    between atoms: _519  and  _520
REMARK  227  A    between atoms: _523  and  _525
REMARK  228  A    between atoms: _525  and  _526
REMARK  229  A    between atoms: _525  and  _528
REMARK  230  A    between atoms: _528  and  _529
REMARK  231  A    between atoms: _534  and  _536
REMARK  232  A    between atoms: _536  and  _537
REMARK  233  A    between atoms: _536  and  _539
REMARK  234  A    between atoms: _539  and  _540
REMARK  235  A    between atoms: _546  and  _548
REMARK  236  A    between atoms: _548  and  _549
REMARK  237  A    between atoms: _548  and  _551
REMARK  238  A    between atoms: _551  and  _552
REMARK  239  A    between atoms: _555  and  _557
REMARK  240  A    between atoms: _557  and  _558
REMARK  241  A    between atoms: _557  and  _560
REMARK  242  A    between atoms: _560  and  _561
REMARK  243  A    between atoms: _566  and  _567
REMARK  244  A    between atoms: _569  and  _571
REMARK  245  A    between atoms: _571  and  _572
REMARK  246  A    between atoms: _571  and  _574
REMARK  247  A    between atoms: _574  and  _575
REMARK  248  A    between atoms: _575  and  _576
REMARK  249  A    between atoms: _576  and  _577
REMARK  250  A    between atoms: _586  and  _588
REMARK  251  A    between atoms: _588  and  _589
REMARK  252  A    between atoms: _588  and  _591
REMARK  253  A    between atoms: _591  and  _592
REMARK  254  A    between atoms: _592  and  _593
REMARK  255  A    between atoms: _593  and  _594
REMARK  256  A    between atoms: _603  and  _605
REMARK  257  A    between atoms: _605  and  _606
REMARK  258  A    between atoms: _605  and  _608
REMARK  259  A    between atoms: _608  and  _609
REMARK  260  A    between atoms: _614  and  _616
REMARK  261  A    between atoms: _616  and  _617
REMARK                            x       y       z     vdW  Elec       q    Type
REMARK                         _______ _______ _______ _____ _____    ______ ____
ROOT
ATOM      1  CA  LYS A   2      -1.375   8.759  -4.353  0.00  0.00    +0.149 C 
ENDROOT
BRANCH   1   3
ATOM      2  C   VAL A   1       0.376   7.222  -3.584  0.00  0.00    +0.238 C 
ATOM      3  N   LYS A   2      -0.763   7.877  -3.373  0.00  0.00    -0.297 N 
ATOM      4  H   LYS A   2      -1.241   7.751  -2.458  0.00  0.00    +0.150 HD
ATOM      5  O   VAL A   1       1.039   7.316  -4.620  0.00  0.00    -0.274 OA
BRANCH   2   6
ATOM      6  CA  VAL A   1       0.867   6.358  -2.429  0.00  0.00    +0.145 C 
BRANCH   6   7
ATOM      7  CB  VAL A   1       1.831   7.221  -1.602  0.00  0.00    +0.025 C 
ATOM      8  CG2 VAL A   1       1.833   6.778  -0.160  0.00  0.00    +0.002 C 
ATOM      9  CG1 VAL A   1       3.226   7.170  -2.198  0.00  0.00    +0.002 C 
ENDBRANCH   6   7
BRANCH   6  10
ATOM     10  N   VAL A   1       1.445   5.104  -2.906  0.00  0.00    -0.238 NA
ATOM     11  H   VAL A   1       2.474   4.954  -2.912  0.00  0.00    +0.142 HD
ENDBRANCH   6  10
ENDBRANCH   2   6
ENDBRANCH   1   3
BRANCH   1  12
ATOM     12  C   LYS A   2      -0.721  10.131  -4.464  0.00  0.00    +0.241 C 
ATOM     13  O   LYS A   2      -0.534  10.808  -3.450  0.00  0.00    -0.273 OA
ATOM     14  N   LEU A   3      -0.390  10.542  -5.695  0.00  0.00    -0.298 N 
ATOM     15  H   LEU A   3      -0.544   9.905  -6.503  0.00  0.00    +0.150 HD
BRANCH  14  16
ATOM     16  CA  LEU A   3       0.179  11.856  -5.926  0.00  0.00    +0.137 C 
BRANCH  16  17
ATOM     17  C   LEU A   3      -1.066  12.738  -6.088  0.00  0.00    +0.227 C 
ATOM     18  O   LEU A   3      -1.901  12.480  -6.929  0.00  0.00    -0.286 OA
ENDBRANCH  16  17
BRANCH  16  19
ATOM     19  CB  LEU A   3       1.055  11.873  -7.198  0.00  0.00    +0.028 C 
BRANCH  19  20
ATOM     20  CG  LEU A   3       1.700  13.206  -7.619  0.00  0.00    +0.002 C 
ATOM     21  CD2 LEU A   3       2.509  13.741  -6.494  0.00  0.00    +0.000 C 
ATOM     22  CD1 LEU A   3       2.592  13.049  -8.799  0.00  0.00    +0.000 C 
ENDBRANCH  19  20
ENDBRANCH  16  19
ENDBRANCH  14  16
ENDBRANCH   1  12
BRANCH   1  23
ATOM     23  CB  LYS A   2      -2.844   9.001  -4.013  0.00  0.00    +0.029 C 
BRANCH  23  24
ATOM     24  CG  LYS A   2      -3.752   7.829  -4.199  0.00  0.00    +0.000 C 
BRANCH  24  25
ATOM     25  CD  LYS A   2      -5.205   8.234  -3.923  0.00  0.00    -0.024 C 
BRANCH  25  26
ATOM     26  CE  LYS A   2      -5.409   8.697  -2.461  0.00  0.00    -0.086 C 
BRANCH  26  27
ATOM     27  NZ  LYS A   2      -6.747   8.313  -1.876  0.00  0.00    +0.380 N 
ATOM     28  HZ1 LYS A   2      -6.808   8.658  -0.897  0.00  0.00    -0.089 HD
ATOM     29  HZ2 LYS A   2      -6.845   7.278  -1.887  0.00  0.00    -0.089 HD
ATOM     30  HZ3 LYS A   2      -7.507   8.740  -2.443  0.00  0.00    -0.089 HD
ENDBRANCH  26  27
ENDBRANCH  25  26
ENDBRANCH  24  25
ENDBRANCH  23  24
ENDBRANCH   1  23
TORSDOF 14
REMARK  Name = ../refined-set-2016/1ydt/1ydt_pocket.pdb
REMARK  261 active torsions:
REMARK  status: ('A' for Active; 'I' for Inactive)
REMARK    1  A    between atoms: _1  and  _3
REMARK    2  A    between atoms: _3  and  _4
REMARK    3  A    between atoms: _3  and  _6
REMARK    4  A    between atoms: _6  and  _7
REMARK    5  A    between atoms: _7  and  _8
REMARK    6  A    between atoms: _8  and  _9
REMARK    7  A    between atoms: _9  and  _10
REMARK    8  A    between atoms: _14  and  _16
REMARK    9  A    between atoms: _16  and  _17
REMARK   10  A    between atoms: _16  and  _19
REMARK   11  A    between atoms: _19  and  _20
REMARK   12  A    between atoms: _23  and  _25
REMARK   13  A    between atoms: _25  and  _26
REMARK   14  A    between atoms: _25  and  _28
REMARK   15  A    between atoms: _28  and  _29
REMARK   16  A    between atoms: _32  and  _34
REMARK   17  A    between atoms: _34  and  _35
REMARK   18  A    between atoms: _37  and  _39
REMARK   19  A    between atoms: _39  and  _40
REMARK   20  A    between atoms: _39  and  _42
REMARK   21  A    between atoms: _42  and  _43
REMARK   22  A    between atoms: _46  and  _48
REMARK   23  A    between atoms: _48  and  _49
REMARK   24  A    between atoms: _51  and  _53
REMARK   25  A    between atoms: _53  and  _54
REMARK   26  A    between atoms: _53  and  _56
REMARK   27  A    between atoms: _56  and  _57
REMARK   28  A    between atoms: _59  and  _61
REMARK   29  A    between atoms: _61  and  _62
REMARK   30  A    between atoms: _61  and  _64
REMARK   31  A    between atoms: _64  and  _65
REMARK   32  A    between atoms: _71  and  _73
REMARK   33  A    between atoms: _73  and  _74
REMARK   34  A    between atoms: _76  and  _78
REMARK   35  A    between atoms: _78  and  _79
REMARK   36  A    between atoms: _78  and  _81
REMARK   37  A    between atoms: _81  and  _82
REMARK   38  A    between atoms: _82  and  _83
REMARK   39  A    between atoms: _83  and  _84
REMARK   40  A    between atoms: _93  and  _95
REMARK   41  A    between atoms: _95  and  _96
REMARK   42  A    between atoms: _95  and  _98
REMARK   43  A    between atoms: _101  and  _103
REMARK   44  A    between atoms: _103  and  _104
REMARK   45  A    between atoms: _103  and  _106
REMARK   46  A    between atoms: _106  and  _107
REMARK   47  A    between atoms: _107  and  _108
REMARK   48  A    between atoms: _110  and  _112
REMARK   49  A    between atoms: _112  and  _113
REMARK   50  A    between atoms: _112  and  _115
REMARK   51  A    between atoms: _115  and  _116
REMARK   52  A    between atoms: _119  and  _121
REMARK   53  A    between atoms: _121  and  _122
REMARK   54  A    between atoms: _121  and  _124
REMARK   55  A    between atoms: _124  and  _125
REMARK   56  A    between atoms: _130  and  _131
REMARK   57  A    between atoms: _133  and  _135
REMARK   58  A    between atoms: _135  and  _136
REMARK   59  A    between atoms: _139  and  _141
REMARK   60  A    between atoms: _141  and  _142
REMARK   61  A    between atoms: _141  and  _144
REMARK   62  A    between atoms: _144  and  _145
REMARK   63  A    between atoms: _145  and  _146
REMARK   64  A    between atoms: _148  and  _150
REMARK   65  A    between atoms: _150  and  _151
REMARK   66  A    between atoms: _150  and  _153
REMARK   67  A    between atoms: _153  and  _154
REMARK   68  A    between atoms: _154  and  _155
REMARK   69  A    between atoms: _155  and  _156
REMARK   70  A    between atoms: _156  and  _157
REMARK   71  A    between atoms: _161  and  _163
REMARK   72  A    between atoms: _163  and  _164
REMARK   73  A    between atoms: _163  and  _166
REMARK   74  A    between atoms: _166  and  _167
REMARK   75  A    between atoms: _170  and  _172
REMARK   76  A    between atoms: _172  and  _173
REMARK   77  A    between atoms: _172  and  _175
REMARK   78  A    between atoms: _175  and  _176
REMARK   79  A    between atoms: _179  and  _181
REMARK   80  A    between atoms: _181  and  _182
REMARK   81  A    between atoms: _181  and  _184
REMARK   82  A    between atoms: _184  and  _185
REMARK   83  A    between atoms: _188  and  _190
REMARK   84  A    between atoms: _190  and  _191
REMARK   85  A    between atoms: _190  and  _193
REMARK   86  A    between atoms: _196  and  _198
REMARK   87  A    between atoms: _198  and  _199
REMARK   88  A    between atoms: _198  and  _201
REMARK   89  A    between atoms: _201  and  _202
REMARK   90  A    between atoms: _205  and  _207
REMARK   91  A    between atoms: _207  and  _208
REMARK   92  A    between atoms: _207  and  _210
REMARK   93  A    between atoms: _210  and  _211
REMARK   94  A    between atoms: _211  and  _212
REMARK   95  A    between atoms: _215  and  _217
REMARK   96  A    between atoms: _217  and  _218
REMARK   97  A    between atoms: _217  and  _220
REMARK   98  A    between atoms: _220  and  _221
REMARK   99  A    between atoms: _224  and  _226
REMARK  100  A    between atoms: _226  and  _227
REMARK  101  A    between atoms: _226  and  _229
REMARK  102  A    between atoms: _232  and  _234
REMARK  103  A    between atoms: _234  and  _235
REMARK  104  A    between atoms: _234  and  _237
REMARK  105  A    between atoms: _237  and  _238
REMARK  106  A    between atoms: _238  and  _239
REMARK  107  A    between atoms: _239  and  _240
REMARK  108  A    between atoms: _240  and  _241
REMARK  109  A    between atoms: _245  and  _247
REMARK  110  A    between atoms: _247  and  _248
REMARK  111  A    between atoms: _247  and  _250
REMARK  112  A    between atoms: _250  and  _251
REMARK  113  A    between atoms: _254  and  _256
REMARK  114  A    between atoms: _256  and  _257
REMARK  115  A    between atoms: _256  and  _259
REMARK  116  A    between atoms: _259  and  _260
REMARK  117  A    between atoms: _260  and  _261
REMARK  118  A    between atoms: _263  and  _265
REMARK  119  A    between atoms: _265  and  _266
REMARK  120  A    between atoms: _265  and  _268
REMARK  121  A    between atoms: _271  and  _273
REMARK  122  A    between atoms: _273  and  _274
REMARK  123  A    between atoms: _273  and  _276
REMARK  124  A    between atoms: _276  and  _277
REMARK  125  A    between atoms: _277  and  _278
REMARK  126  A    between atoms: _280  and  _282
REMARK  127  A    between atoms: _282  and  _283
REMARK  128  A    between atoms: _282  and  _285
REMARK  129  A    between atoms: _285  and  _286
REMARK  130  A    between atoms: _286  and  _287
REMARK  131  A    between atoms: _290  and  _292
REMARK  132  A    between atoms: _292  and  _293
REMARK  133  A    between atoms: _292  and  _295
REMARK  134  A    between atoms: _295  and  _296
REMARK  135  A    between atoms: _301  and  _302
REMARK  136  A    between atoms: _304  and  _306
REMARK  137  A    between atoms: _306  and  _307
REMARK  138  A    between atoms: _306  and  _309
REMARK  139  A    between atoms: _312  and  _314
REMARK  140  A    between atoms: _314  and  _315
REMARK  141  A    between atoms: _318  and  _320
REMARK  142  A    between atoms: _320  and  _321
REMARK  143  A    between atoms: _323  and  _325
REMARK  144  A    between atoms: _325  and  _326
REMARK  145  A    between atoms: _328  and  _330
REMARK  146  A    between atoms: _330  and  _331
REMARK  147  A    between atoms: _330  and  _333
REMARK  148  A    between atoms: _333  and  _334
REMARK  149  A    between atoms: _334  and  _335
REMARK  150  A    between atoms: _338  and  _340
REMARK  151  A    between atoms: _340  and  _341
REMARK  152  A    between atoms: _340  and  _343
REMARK  153  A    between atoms: _343  and  _344
REMARK  154  A    between atoms: _344  and  _345
REMARK  155  A    between atoms: _347  and  _349
REMARK  156  A    between atoms: _349  and  _350
REMARK  157  A    between atoms: _349  and  _352
REMARK  158  A    between atoms: _352  and  _353
REMARK  159  A    between atoms: _359  and  _361
REMARK  160  A    between atoms: _361  and  _362
REMARK  161  A    between atoms: _361  and  _364
REMARK  162  A    between atoms: _364  and  _365
REMARK  163  A    between atoms: _370  and  _371
REMARK  164  A    between atoms: _373  and  _375
REMARK  165  A    between atoms: _375  and  _376
REMARK  166  A    between atoms: _375  and  _378
REMARK  167  A    between atoms: _378  and  _379
REMARK  168  A    between atoms: _382  and  _384
REMARK  169  A    between atoms: _384  and  _385
REMARK  170  A    between atoms: _384  and  _387
REMARK  171  A    between atoms: _387  and  _388
REMARK  172  A    between atoms: _388  and  _389
REMARK  173  A    between atoms: _389  and  _390
REMARK  174  A    between atoms: _390  and  _391
REMARK  175  A    between atoms: _396  and  _397
REMARK  176  A    between atoms: _402  and  _404
REMARK  177  A    between atoms: _404  and  _405
REMARK  178  A    between atoms: _404  and  _407
REMARK  179  A    between atoms: _407  and  _408
REMARK  180  A    between atoms: _408  and  _409
REMARK  181  A    between atoms: _412  and  _414
REMARK  182  A    between atoms: _414  and  _415
REMARK  183  A    between atoms: _414  and  _417
REMARK  184  A    between atoms: _417  and  _418
REMARK  185  A    between atoms: _423  and  _425
REMARK  186  A    between atoms: _425  and  _426
REMARK  187  A    between atoms: _425  and  _428
REMARK  188  A    between atoms: _428  and  _429
REMARK  189  A    between atoms: _432  and  _434
REMARK  190  A    between atoms: _434  and  _435
REMARK  191  A    between atoms: _434  and  _437
REMARK  192  A    between atoms: _437  and  _438
REMARK  193  A    between atoms: _441  and  _443
REMARK  194  A    between atoms: _443  and  _444
REMARK  195  A    between atoms: _443  and  _446
REMARK  196  A    between atoms: _446  and  _447
REMARK  197  A    between atoms: _450  and  _452
REMARK  198  A    between atoms: _452  and  _453
REMARK  199  A    between atoms: _452  and  _455
REMARK  200  A    between atoms: _455  and  _456
REMARK  201  A    between atoms: _459  and  _461
REMARK  202  A    between atoms: _461  and  _462
REMARK  203  A    between atoms: _461  and  _464
REMARK  204  A    between atoms: _464  and  _465
REMARK  205  A    between atoms: _465  and  _466
REMARK  206  A    between atoms: _471  and  _473
REMARK  207  A    between atoms: _473  and  _474
REMARK  208  A    between atoms: _473  and  _476
REMARK  209  A    between atoms: _479  and  _481
REMARK  210  A    between atoms: _481  and  _482
REMARK  211  A    between atoms: _481  and  _484
REMARK  212  A    between atoms: _484  and  _485
REMARK  213  A    between atoms: _488  and  _490
REMARK  214  A    between atoms: _490  and  _491
REMARK  215  A    between atoms: _490  and  _493
REMARK  216  A    between atoms: _493  and  _494
REMARK  217  A    between atoms: _497  and  _499
REMARK  218  A    between atoms: _499  and  _500
REMARK  219  A    between atoms: _499  and  _502
REMARK  220  A    between atoms: _502  and  _503
REMARK  221  A    between atoms: _509  and  _511
REMARK  222  A    between atoms: _511  and  _512
REMARK  223  A    between atoms: _514  and  _516
REMARK  224  A    between atoms: _516  and  _517
REMARK  225  A    between atoms: _516  and  _519
REMARK  226  A    between atoms: _519  and  _520
REMARK  227  A    between atoms: _523  and  _525
REMARK  228  A    between atoms: _525  and  _526
REMARK  229  A    between atoms: _525  and  _528
REMARK  230  A    between atoms: _528  and  _529
REMARK  231  A    between atoms: _534  and  _536
REMARK  232  A    between atoms: _536  and  _537
REMARK  233  A    between atoms: _536  and  _539
REMARK  234  A    between atoms: _539  and  _540
REMARK  235  A    between atoms: _546  and  _548
REMARK  236  A    between atoms: _548  and  _549
REMARK  237  A    between atoms: _548  and  _551
REMARK  238  A    between atoms: _551  and  _552
REMARK  239  A    between atoms: _555  and  _557
REMARK  240  A    between atoms: _557  and  _558
REMARK  241  A    between atoms: _557  and  _560
REMARK  242  A    between atoms: _560  and  _561
REMARK  243  A    between atoms: _566  and  _567
REMARK  244  A    between atoms: _569  and  _571
REMARK  245  A    between atoms: _571  and  _572
REMARK  246  A    between atoms: _571  and  _574
REMARK  247  A    between atoms: _574  and  _575
REMARK  248  A    between atoms: _575  and  _576
REMARK  249  A    between atoms: _576  and  _577
REMARK  250  A    between atoms: _586  and  _588
REMARK  251  A    between atoms: _588  and  _589
REMARK  252  A    between atoms: _588  and  _591
REMARK  253  A    between atoms: _591  and  _592
REMARK  254  A    between atoms: _592  and  _593
REMARK  255  A    between atoms: _593  and  _594
REMARK  256  A    between atoms: _603  and  _605
REMARK  257  A    between atoms: _605  and  _606
REMARK  258  A    between atoms: _605  and  _608
REMARK  259  A    between atoms: _608  and  _609
REMARK  260  A    between atoms: _614  and  _616
REMARK  261  A    between atoms: _616  and  _617
REMARK                            x       y       z     vdW  Elec       q    Type
REMARK                         _______ _______ _______ _____ _____    ______ ____
ROOT
ATOM      1  CA  VAL A   6       0.155   7.934   5.438  0.00  0.00    +0.149 C 
ENDROOT
BRANCH   1   2
ATOM      2  C   VAL A   6       0.535   8.010   6.908  0.00  0.00    +0.241 C 
ATOM      3  N   ALA A   7      -0.484   8.002   7.762  0.00  0.00    -0.297 N 
ATOM      4  H   ALA A   7      -1.447   7.894   7.385  0.00  0.00    +0.150 HD
ATOM      5  O   VAL A   6       1.708   8.059   7.260  0.00  0.00    -0.273 OA
BRANCH   3   6
ATOM      6  CA  ALA A   7      -0.312   8.136   9.188  0.00  0.00    +0.149 C 
ATOM      7  CB  ALA A   7      -1.681   8.389   9.793  0.00  0.00    +0.031 C 
BRANCH   6   8
ATOM      8  C   ALA A   7       0.488   7.050   9.994  0.00  0.00    +0.241 C 
ATOM      9  O   ALA A   7       1.190   7.372  10.954  0.00  0.00    -0.273 OA
ATOM     10  N   GLY A   8       0.476   5.798   9.552  0.00  0.00    -0.295 N 
ATOM     11  H   GLY A   8      -0.008   5.565   8.661  0.00  0.00    +0.150 HD
BRANCH  10  12
ATOM     12  CA  GLY A   8       1.138   4.757  10.313  0.00  0.00    +0.176 C 
BRANCH  12  13
ATOM     13  C   GLY A   8       2.628   4.784  10.594  0.00  0.00    +0.243 C 
ATOM     14  O   GLY A   8       3.074   4.047  11.499  0.00  0.00    -0.273 OA
ATOM     15  N   GLY A   9       3.391   5.600   9.857  0.00  0.00    -0.295 N 
ATOM     16  H   GLY A   9       2.937   6.197   9.137  0.00  0.00    +0.150 HD
BRANCH  15  17
ATOM     17  CA  GLY A   9       4.838   5.681  10.029  0.00  0.00    +0.176 C 
BRANCH  17  18
ATOM     18  C   GLY A   9       5.556   4.674   9.149  0.00  0.00    +0.243 C 
ATOM     19  N   GLU A  10       6.879   4.657   9.175  0.00  0.00    -0.297 N 
ATOM     20  H   GLU A  10       7.395   5.306   9.803  0.00  0.00    +0.150 HD
ATOM     21  O   GLY A   9       4.929   3.852   8.499  0.00  0.00    -0.273 OA
BRANCH  19  22
ATOM     22  CA  GLU A  10       7.613   3.731   8.326  0.00  0.00    +0.149 C 
BRANCH  22  23
ATOM     23  C   GLU A  10       7.645   2.326   8.875  0.00  0.00    +0.241 C 
ATOM     24  O   GLU A  10       7.548   2.134  10.078  0.00  0.00    -0.273 OA
ATOM     25  N   MET A  11       7.775   1.336   7.993  0.00  0.00    -0.297 N 
ATOM     26  H   MET A  11       7.820   1.567   6.980  0.00  0.00    +0.150 HD
BRANCH  25  27
ATOM     27  CA  MET A  11       7.857  -0.064   8.404  0.00  0.00    +0.149 C 
BRANCH  27  28
ATOM     28  C   MET A  11       9.157  -0.179   9.196  0.00  0.00    +0.241 C 
ATOM     29  O   MET A  11       9.215  -0.828  10.227  0.00  0.00    -0.273 OA
ATOM     30  N   PHE A  12      10.196   0.459   8.673  0.00  0.00    -0.298 N 
ATOM     31  H   PHE A  12      10.057   0.965   7.775  0.00  0.00    +0.150 HD
BRANCH  30  32
ATOM     32  CA  PHE A  12      11.516   0.494   9.279  0.00  0.00    +0.141 C 
BRANCH  32  33
ATOM     33  C   PHE A  12      11.476   0.731  10.801  0.00  0.00    +0.227 C 
ATOM     34  O   PHE A  12      12.177   0.063  11.561  0.00  0.00    -0.286 OA
ENDBRANCH  32  33
BRANCH  32  35
ATOM     35  CB  PHE A  12      12.289   1.652   8.655  0.00  0.00    +0.054 C 
BRANCH  35  36
ATOM     36  CG  PHE A  12      13.615   1.917   9.301  0.00  0.00    -0.020 A 
ATOM     37  CD2 PHE A  12      13.758   2.955  10.220  0.00  0.00    -0.004 A 
ATOM     38  CE2 PHE A  12      14.993   3.247  10.772  0.00  0.00    -0.000 A 
ATOM     39  CZ  PHE A  12      16.124   2.490  10.410  0.00  0.00    -0.000 A 
ATOM     40  CE1 PHE A  12      15.996   1.440   9.487  0.00  0.00    -0.000 A 
ATOM     41  CD1 PHE A  12      14.737   1.161   8.946  0.00  0.00    -0.004 A 
ENDBRANCH  35  36
ENDBRANCH  32  35
ENDBRANCH  30  32
ENDBRANCH  27  28
BRANCH  27  42
ATOM     42  CB  MET A  11       7.939  -0.989   7.172  0.00  0.00    +0.041 C 
BRANCH  42  43
ATOM     43  CG  MET A  11       8.097  -2.439   7.546  0.00  0.00    +0.060 C 
BRANCH  43  44
ATOM     44  SD  MET A  11       8.498  -3.534   6.238  0.00  0.00    -0.139 S 
ATOM     45  CE  MET A  11       6.898  -4.115   5.839  0.00  0.00    +0.069 C 
ENDBRANCH  43  44
ENDBRANCH  42  43
ENDBRANCH  27  42
ENDBRANCH  25  27
ENDBRANCH  22  23
BRANCH  22  46
ATOM     46  CB  GLU A  10       9.037   4.229   8.098  0.00  0.00    +0.041 C 
BRANCH  46  47
ATOM     47  CG  GLU A  10       9.129   5.629   7.449  0.00  0.00    +0.116 C 
BRANCH  47  48
ATOM     48  CD  GLU A  10      10.514   6.192   7.538  0.00  0.00    +0.365 C 
ATOM     49  OE2 GLU A  10      11.415   5.400   7.879  0.00  0.00    -0.246 OA
ATOM     50  OE1 GLU A  10      10.712   7.409   7.294  0.00  0.00    -0.246 OA
ENDBRANCH  47  48
ENDBRANCH  46  47
ENDBRANCH  22  46
ENDBRANCH  19  22
ENDBRANCH  17  18
ENDBRANCH  15  17
ENDBRANCH  12  13
ENDBRANCH  10  12
ENDBRANCH   6   8
ENDBRANCH   3   6
ENDBRANCH   1   2
BRANCH   1  53
ATOM     51  C   TYR A   5      -0.604  10.156   4.826  0.00  0.00    +0.241 C 
ATOM     52  O   TYR A   5      -1.756   9.872   5.120  0.00  0.00    -0.273 OA
ATOM     53  N   VAL A   6       0.377   9.270   4.897  0.00  0.00    -0.297 N 
ATOM     54  H   VAL A   6       1.325   9.532   4.560  0.00  0.00    +0.150 HD
BRANCH  51  55
ATOM     55  CA  TYR A   5      -0.260  11.530   4.248  0.00  0.00    +0.153 C 
BRANCH  55  57
ATOM     56  C   GLU A   4      -0.466  11.050   1.863  0.00  0.00    +0.241 C 
ATOM     57  N   TYR A   5      -0.874  11.720   2.949  0.00  0.00    -0.297 N 
ATOM     58  H   TYR A   5      -1.657  12.399   2.857  0.00  0.00    +0.150 HD
ATOM     59  O   GLU A   4       0.462  10.197   1.877  0.00  0.00    -0.273 OA
BRANCH  56  60
ATOM     60  CA  GLU A   4      -1.227  11.396   0.565  0.00  0.00    +0.149 C 
BRANCH  60  63
ATOM     61  C   MET A   3       0.182  12.925  -0.676  0.00  0.00    +0.241 C 
ATOM     62  O   MET A   3      -0.019  13.851   0.092  0.00  0.00    -0.273 OA
ATOM     63  N   GLU A   4      -0.340  11.725  -0.522  0.00  0.00    -0.297 N 
ATOM     64  H   GLU A   4      -0.102  10.985  -1.213  0.00  0.00    +0.150 HD
BRANCH  61  65
ATOM     65  CA  MET A   3       1.076  13.081  -1.866  0.00  0.00    +0.149 C 
BRANCH  65  67
ATOM     66  C   VAL A   2       1.156  15.350  -2.757  0.00  0.00    +0.241 C 
ATOM     67  N   MET A   3       1.622  14.428  -1.930  0.00  0.00    -0.297 N 
ATOM     68  H   MET A   3       2.411  14.677  -1.300  0.00  0.00    +0.150 HD
ATOM     69  O   VAL A   2       0.272  15.145  -3.588  0.00  0.00    -0.273 OA
BRANCH  66  70
ATOM     70  CA  VAL A   2       1.836  16.686  -2.691  0.00  0.00    +0.148 C 
BRANCH  70  73
ATOM     71  C   MET A   1       3.948  16.485  -3.812  0.00  0.00    +0.238 C 
ATOM     72  O   MET A   1       4.500  16.205  -2.763  0.00  0.00    -0.274 OA
ATOM     73  N   VAL A   2       2.661  16.780  -3.873  0.00  0.00    -0.297 N 
ATOM     74  H   VAL A   2       2.241  17.081  -4.775  0.00  0.00    +0.150 HD
BRANCH  71  75
ATOM     75  CA  MET A   1       4.756  16.634  -5.094  0.00  0.00    +0.146 C 
BRANCH  75  76
ATOM     76  N   MET A   1       5.611  17.772  -4.821  0.00  0.00    -0.238 NA
ATOM     77  H   MET A   1       6.044  17.863  -3.880  0.00  0.00    +0.142 HD
ENDBRANCH  75  76
BRANCH  75  78
ATOM     78  CB  MET A   1       5.587  15.382  -5.376  0.00  0.00    +0.038 C 
BRANCH  78  79
ATOM     79  CG  MET A   1       6.117  15.336  -6.785  0.00  0.00    +0.060 C 
BRANCH  79  80
ATOM     80  SD  MET A   1       7.221  13.952  -7.058  0.00  0.00    -0.139 S 
ATOM     81  CE  MET A   1       8.735  14.743  -6.715  0.00  0.00    +0.069 C 
ENDBRANCH  79  80
ENDBRANCH  78  79
ENDBRANCH  75  78
ENDBRANCH  71  75
ENDBRANCH  70  73
BRANCH  70  82
ATOM     82  CB  VAL A   2       0.763  17.814  -2.645  0.00  0.00    +0.027 C 
ATOM     83  CG2 VAL A   2      -0.061  17.670  -1.405  0.00  0.00    +0.002 C 
ATOM     84  CG1 VAL A   2       1.409  19.199  -2.668  0.00  0.00    +0.002 C 
ENDBRANCH  70  82
ENDBRANCH  66  70
ENDBRANCH  65  67
BRANCH  65  85
ATOM     85  CB  MET A   3       2.194  12.041  -1.768  0.00  0.00    +0.041 C 
BRANCH  85  86
ATOM     86  CG  MET A   3       2.973  11.904  -3.025  0.00  0.00    +0.060 C 
BRANCH  86  87
ATOM     87  SD  MET A   3       4.626  11.473  -2.695  0.00  0.00    -0.139 S 
ATOM     88  CE  MET A   3       5.273  13.039  -2.185  0.00  0.00    +0.069 C 
ENDBRANCH  86  87
ENDBRANCH  85  86
ENDBRANCH  65  85
ENDBRANCH  61  65
ENDBRANCH  60  63
BRANCH  60  89
ATOM     89  CB  GLU A   4      -2.111  10.253   0.118  0.00  0.00    +0.041 C 
BRANCH  89  90
ATOM     90  CG  GLU A   4      -2.988   9.718   1.173  0.00  0.00    +0.116 C 
BRANCH  90  91
ATOM     91  CD  GLU A   4      -4.019   8.805   0.590  0.00  0.00    +0.365 C 
ATOM     92  OE2 GLU A   4      -5.221   9.162   0.667  0.00  0.00    -0.246 OA
ATOM     93  OE1 GLU A   4      -3.620   7.755   0.020  0.00  0.00    -0.246 OA
ENDBRANCH  90  91
ENDBRANCH  89  90
ENDBRANCH  60  89
ENDBRANCH  56  60
ENDBRANCH  55  57
BRANCH  55  94
ATOM     94  CB  TYR A   5      -0.682  12.667   5.190  0.00  0.00    +0.055 C 
BRANCH  94  95
ATOM     95  CG  TYR A   5      -0.058  12.561   6.571  0.00  0.00    -0.020 A 
ATOM     96  CD2 TYR A   5      -0.825  12.238   7.680  0.00  0.00    -0.001 A 
ATOM     97  CE2 TYR A   5      -0.245  12.024   8.922  0.00  0.00    +0.036 A 
ATOM     98  CZ  TYR A   5       1.105  12.139   9.055  0.00  0.00    +0.134 A 
ATOM     99  CE1 TYR A   5       1.887  12.473   7.972  0.00  0.00    +0.036 A 
ATOM    100  CD1 TYR A   5       1.305  12.683   6.745  0.00  0.00    -0.001 A 
BRANCH  98 101
ATOM    101  OH  TYR A   5       1.691  11.882  10.260  0.00  0.00    -0.506 OA
ATOM    102  HH  TYR A   5       1.327  12.501  10.941  0.00  0.00    +0.292 HD
ENDBRANCH  98 101
ENDBRANCH  94  95
ENDBRANCH  55  94
ENDBRANCH  51  55
ENDBRANCH   1  53
BRANCH   1 103
ATOM    103  CB  VAL A   6       1.005   6.855   4.716  0.00  0.00    +0.027 C 
ATOM    104  CG2 VAL A   6       0.637   5.452   5.231  0.00  0.00    +0.002 C 
ATOM    105  CG1 VAL A   6       0.799   6.928   3.203  0.00  0.00    +0.002 C 
ENDBRANCH   1 103
TORSDOF 46
REMARK  Name = ../refined-set-2016/1ydt/1ydt_pocket.pdb
REMARK  261 active torsions:
REMARK  status: ('A' for Active; 'I' for Inactive)
REMARK    1  A    between atoms: _1  and  _3
REMARK    2  A    between atoms: _3  and  _4
REMARK    3  A    between atoms: _3  and  _6
REMARK    4  A    between atoms: _6  and  _7
REMARK    5  A    between atoms: _7  and  _8
REMARK    6  A    between atoms: _8  and  _9
REMARK    7  A    between atoms: _9  and  _10
REMARK    8  A    between atoms: _14  and  _16
REMARK    9  A    between atoms: _16  and  _17
REMARK   10  A    between atoms: _16  and  _19
REMARK   11  A    between atoms: _19  and  _20
REMARK   12  A    between atoms: _23  and  _25
REMARK   13  A    between atoms: _25  and  _26
REMARK   14  A    between atoms: _25  and  _28
REMARK   15  A    between atoms: _28  and  _29
REMARK   16  A    between atoms: _32  and  _34
REMARK   17  A    between atoms: _34  and  _35
REMARK   18  A    between atoms: _37  and  _39
REMARK   19  A    between atoms: _39  and  _40
REMARK   20  A    between atoms: _39  and  _42
REMARK   21  A    between atoms: _42  and  _43
REMARK   22  A    between atoms: _46  and  _48
REMARK   23  A    between atoms: _48  and  _49
REMARK   24  A    between atoms: _51  and  _53
REMARK   25  A    between atoms: _53  and  _54
REMARK   26  A    between atoms: _53  and  _56
REMARK   27  A    between atoms: _56  and  _57
REMARK   28  A    between atoms: _59  and  _61
REMARK   29  A    between atoms: _61  and  _62
REMARK   30  A    between atoms: _61  and  _64
REMARK   31  A    between atoms: _64  and  _65
REMARK   32  A    between atoms: _71  and  _73
REMARK   33  A    between atoms: _73  and  _74
REMARK   34  A    between atoms: _76  and  _78
REMARK   35  A    between atoms: _78  and  _79
REMARK   36  A    between atoms: _78  and  _81
REMARK   37  A    between atoms: _81  and  _82
REMARK   38  A    between atoms: _82  and  _83
REMARK   39  A    between atoms: _83  and  _84
REMARK   40  A    between atoms: _93  and  _95
REMARK   41  A    between atoms: _95  and  _96
REMARK   42  A    between atoms: _95  and  _98
REMARK   43  A    between atoms: _101  and  _103
REMARK   44  A    between atoms: _103  and  _104
REMARK   45  A    between atoms: _103  and  _106
REMARK   46  A    between atoms: _106  and  _107
REMARK   47  A    between atoms: _107  and  _108
REMARK   48  A    between atoms: _110  and  _112
REMARK   49  A    between atoms: _112  and  _113
REMARK   50  A    between atoms: _112  and  _115
REMARK   51  A    between atoms: _115  and  _116
REMARK   52  A    between atoms: _119  and  _121
REMARK   53  A    between atoms: _121  and  _122
REMARK   54  A    between atoms: _121  and  _124
REMARK   55  A    between atoms: _124  and  _125
REMARK   56  A    between atoms: _130  and  _131
REMARK   57  A    between atoms: _133  and  _135
REMARK   58  A    between atoms: _135  and  _136
REMARK   59  A    between atoms: _139  and  _141
REMARK   60  A    between atoms: _141  and  _142
REMARK   61  A    between atoms: _141  and  _144
REMARK   62  A    between atoms: _144  and  _145
REMARK   63  A    between atoms: _145  and  _146
REMARK   64  A    between atoms: _148  and  _150
REMARK   65  A    between atoms: _150  and  _151
REMARK   66  A    between atoms: _150  and  _153
REMARK   67  A    between atoms: _153  and  _154
REMARK   68  A    between atoms: _154  and  _155
REMARK   69  A    between atoms: _155  and  _156
REMARK   70  A    between atoms: _156  and  _157
REMARK   71  A    between atoms: _161  and  _163
REMARK   72  A    between atoms: _163  and  _164
REMARK   73  A    between atoms: _163  and  _166
REMARK   74  A    between atoms: _166  and  _167
REMARK   75  A    between atoms: _170  and  _172
REMARK   76  A    between atoms: _172  and  _173
REMARK   77  A    between atoms: _172  and  _175
REMARK   78  A    between atoms: _175  and  _176
REMARK   79  A    between atoms: _179  and  _181
REMARK   80  A    between atoms: _181  and  _182
REMARK   81  A    between atoms: _181  and  _184
REMARK   82  A    between atoms: _184  and  _185
REMARK   83  A    between atoms: _188  and  _190
REMARK   84  A    between atoms: _190  and  _191
REMARK   85  A    between atoms: _190  and  _193
REMARK   86  A    between atoms: _196  and  _198
REMARK   87  A    between atoms: _198  and  _199
REMARK   88  A    between atoms: _198  and  _201
REMARK   89  A    between atoms: _201  and  _202
REMARK   90  A    between atoms: _205  and  _207
REMARK   91  A    between atoms: _207  and  _208
REMARK   92  A    between atoms: _207  and  _210
REMARK   93  A    between atoms: _210  and  _211
REMARK   94  A    between atoms: _211  and  _212
REMARK   95  A    between atoms: _215  and  _217
REMARK   96  A    between atoms: _217  and  _218
REMARK   97  A    between atoms: _217  and  _220
REMARK   98  A    between atoms: _220  and  _221
REMARK   99  A    between atoms: _224  and  _226
REMARK  100  A    between atoms: _226  and  _227
REMARK  101  A    between atoms: _226  and  _229
REMARK  102  A    between atoms: _232  and  _234
REMARK  103  A    between atoms: _234  and  _235
REMARK  104  A    between atoms: _234  and  _237
REMARK  105  A    between atoms: _237  and  _238
REMARK  106  A    between atoms: _238  and  _239
REMARK  107  A    between atoms: _239  and  _240
REMARK  108  A    between atoms: _240  and  _241
REMARK  109  A    between atoms: _245  and  _247
REMARK  110  A    between atoms: _247  and  _248
REMARK  111  A    between atoms: _247  and  _250
REMARK  112  A    between atoms: _250  and  _251
REMARK  113  A    between atoms: _254  and  _256
REMARK  114  A    between atoms: _256  and  _257
REMARK  115  A    between atoms: _256  and  _259
REMARK  116  A    between atoms: _259  and  _260
REMARK  117  A    between atoms: _260  and  _261
REMARK  118  A    between atoms: _263  and  _265
REMARK  119  A    between atoms: _265  and  _266
REMARK  120  A    between atoms: _265  and  _268
REMARK  121  A    between atoms: _271  and  _273
REMARK  122  A    between atoms: _273  and  _274
REMARK  123  A    between atoms: _273  and  _276
REMARK  124  A    between atoms: _276  and  _277
REMARK  125  A    between atoms: _277  and  _278
REMARK  126  A    between atoms: _280  and  _282
REMARK  127  A    between atoms: _282  and  _283
REMARK  128  A    between atoms: _282  and  _285
REMARK  129  A    between atoms: _285  and  _286
REMARK  130  A    between atoms: _286  and  _287
REMARK  131  A    between atoms: _290  and  _292
REMARK  132  A    between atoms: _292  and  _293
REMARK  133  A    between atoms: _292  and  _295
REMARK  134  A    between atoms: _295  and  _296
REMARK  135  A    between atoms: _301  and  _302
REMARK  136  A    between atoms: _304  and  _306
REMARK  137  A    between atoms: _306  and  _307
REMARK  138  A    between atoms: _306  and  _309
REMARK  139  A    between atoms: _312  and  _314
REMARK  140  A    between atoms: _314  and  _315
REMARK  141  A    between atoms: _318  and  _320
REMARK  142  A    between atoms: _320  and  _321
REMARK  143  A    between atoms: _323  and  _325
REMARK  144  A    between atoms: _325  and  _326
REMARK  145  A    between atoms: _328  and  _330
REMARK  146  A    between atoms: _330  and  _331
REMARK  147  A    between atoms: _330  and  _333
REMARK  148  A    between atoms: _333  and  _334
REMARK  149  A    between atoms: _334  and  _335
REMARK  150  A    between atoms: _338  and  _340
REMARK  151  A    between atoms: _340  and  _341
REMARK  152  A    between atoms: _340  and  _343
REMARK  153  A    between atoms: _343  and  _344
REMARK  154  A    between atoms: _344  and  _345
REMARK  155  A    between atoms: _347  and  _349
REMARK  156  A    between atoms: _349  and  _350
REMARK  157  A    between atoms: _349  and  _352
REMARK  158  A    between atoms: _352  and  _353
REMARK  159  A    between atoms: _359  and  _361
REMARK  160  A    between atoms: _361  and  _362
REMARK  161  A    between atoms: _361  and  _364
REMARK  162  A    between atoms: _364  and  _365
REMARK  163  A    between atoms: _370  and  _371
REMARK  164  A    between atoms: _373  and  _375
REMARK  165  A    between atoms: _375  and  _376
REMARK  166  A    between atoms: _375  and  _378
REMARK  167  A    between atoms: _378  and  _379
REMARK  168  A    between atoms: _382  and  _384
REMARK  169  A    between atoms: _384  and  _385
REMARK  170  A    between atoms: _384  and  _387
REMARK  171  A    between atoms: _387  and  _388
REMARK  172  A    between atoms: _388  and  _389
REMARK  173  A    between atoms: _389  and  _390
REMARK  174  A    between atoms: _390  and  _391
REMARK  175  A    between atoms: _396  and  _397
REMARK  176  A    between atoms: _402  and  _404
REMARK  177  A    between atoms: _404  and  _405
REMARK  178  A    between atoms: _404  and  _407
REMARK  179  A    between atoms: _407  and  _408
REMARK  180  A    between atoms: _408  and  _409
REMARK  181  A    between atoms: _412  and  _414
REMARK  182  A    between atoms: _414  and  _415
REMARK  183  A    between atoms: _414  and  _417
REMARK  184  A    between atoms: _417  and  _418
REMARK  185  A    between atoms: _423  and  _425
REMARK  186  A    between atoms: _425  and  _426
REMARK  187  A    between atoms: _425  and  _428
REMARK  188  A    between atoms: _428  and  _429
REMARK  189  A    between atoms: _432  and  _434
REMARK  190  A    between atoms: _434  and  _435
REMARK  191  A    between atoms: _434  and  _437
REMARK  192  A    between atoms: _437  and  _438
REMARK  193  A    between atoms: _441  and  _443
REMARK  194  A    between atoms: _443  and  _444
REMARK  195  A    between atoms: _443  and  _446
REMARK  196  A    between atoms: _446  and  _447
REMARK  197  A    between atoms: _450  and  _452
REMARK  198  A    between atoms: _452  and  _453
REMARK  199  A    between atoms: _452  and  _455
REMARK  200  A    between atoms: _455  and  _456
REMARK  201  A    between atoms: _459  and  _461
REMARK  202  A    between atoms: _461  and  _462
REMARK  203  A    between atoms: _461  and  _464
REMARK  204  A    between atoms: _464  and  _465
REMARK  205  A    between atoms: _465  and  _466
REMARK  206  A    between atoms: _471  and  _473
REMARK  207  A    between atoms: _473  and  _474
REMARK  208  A    between atoms: _473  and  _476
REMARK  209  A    between atoms: _479  and  _481
REMARK  210  A    between atoms: _481  and  _482
REMARK  211  A    between atoms: _481  and  _484
REMARK  212  A    between atoms: _484  and  _485
REMARK  213  A    between atoms: _488  and  _490
REMARK  214  A    between atoms: _490  and  _491
REMARK  215  A    between atoms: _490  and  _493
REMARK  216  A    between atoms: _493  and  _494
REMARK  217  A    between atoms: _497  and  _499
REMARK  218  A    between atoms: _499  and  _500
REMARK  219  A    between atoms: _499  and  _502
REMARK  220  A    between atoms: _502  and  _503
REMARK  221  A    between atoms: _509  and  _511
REMARK  222  A    between atoms: _511  and  _512
REMARK  223  A    between atoms: _514  and  _516
REMARK  224  A    between atoms: _516  and  _517
REMARK  225  A    between atoms: _516  and  _519
REMARK  226  A    between atoms: _519  and  _520
REMARK  227  A    between atoms: _523  and  _525
REMARK  228  A    between atoms: _525  and  _526
REMARK  229  A    between atoms: _525  and  _528
REMARK  230  A    between atoms: _528  and  _529
REMARK  231  A    between atoms: _534  and  _536
REMARK  232  A    between atoms: _536  and  _537
REMARK  233  A    between atoms: _536  and  _539
REMARK  234  A    between atoms: _539  and  _540
REMARK  235  A    between atoms: _546  and  _548
REMARK  236  A    between atoms: _548  and  _549
REMARK  237  A    between atoms: _548  and  _551
REMARK  238  A    between atoms: _551  and  _552
REMARK  239  A    between atoms: _555  and  _557
REMARK  240  A    between atoms: _557  and  _558
REMARK  241  A    between atoms: _557  and  _560
REMARK  242  A    between atoms: _560  and  _561
REMARK  243  A    between atoms: _566  and  _567
REMARK  244  A    between atoms: _569  and  _571
REMARK  245  A    between atoms: _571  and  _572
REMARK  246  A    between atoms: _571  and  _574
REMARK  247  A    between atoms: _574  and  _575
REMARK  248  A    between atoms: _575  and  _576
REMARK  249  A    between atoms: _576  and  _577
REMARK  250  A    between atoms: _586  and  _588
REMARK  251  A    between atoms: _588  and  _589
REMARK  252  A    between atoms: _588  and  _591
REMARK  253  A    between atoms: _591  and  _592
REMARK  254  A    between atoms: _592  and  _593
REMARK  255  A    between atoms: _593  and  _594
REMARK  256  A    between atoms: _603  and  _605
REMARK  257  A    between atoms: _605  and  _606
REMARK  258  A    between atoms: _605  and  _608
REMARK  259  A    between atoms: _608  and  _609
REMARK  260  A    between atoms: _614  and  _616
REMARK  261  A    between atoms: _616  and  _617
REMARK                            x       y       z     vdW  Elec       q    Type
REMARK                         _______ _______ _______ _____ _____    ______ ____
ROOT
ATOM      1  CG  TYR A   1      10.012   0.146  -6.511  0.00  0.00    -0.020 A 
ATOM      2  CD2 TYR A   1      10.394  -0.397  -5.273  0.00  0.00    -0.001 A 
ATOM      3  CE2 TYR A   1      10.379   0.357  -4.127  0.00  0.00    +0.036 A 
ATOM      4  CZ  TYR A   1       9.978   1.674  -4.184  0.00  0.00    +0.134 A 
ATOM      5  CE1 TYR A   1       9.592   2.247  -5.390  0.00  0.00    +0.036 A 
ATOM      6  CD1 TYR A   1       9.610   1.481  -6.549  0.00  0.00    -0.001 A 
ENDROOT
BRANCH   4   7
ATOM      7  OH  TYR A   1       9.939   2.433  -3.041  0.00  0.00    -0.506 OA
ATOM      8  HH  TYR A   1       9.631   3.347  -3.264  0.00  0.00    +0.292 HD
ENDBRANCH   4   7
BRANCH   1   9
ATOM      9  CB  TYR A   1      10.078  -0.666  -7.780  0.00  0.00    +0.051 C 
BRANCH   9  10
ATOM     10  CA  TYR A   1      10.899   0.047  -8.856  0.00  0.00    +0.137 C 
BRANCH  10  11
ATOM     11  N   TYR A   1      10.981  -0.769 -10.077  0.00  0.00    -0.239 NA
ATOM     12  H   TYR A   1      10.860  -1.799  -9.999  0.00  0.00    +0.142 HD
ENDBRANCH  10  11
BRANCH  10  13
ATOM     13  C   TYR A   1      12.291   0.453  -8.322  0.00  0.00    +0.224 C 
ATOM     14  O   TYR A   1      12.524   1.612  -7.960  0.00  0.00    -0.287 OA
ENDBRANCH  10  13
ENDBRANCH   9  10
ENDBRANCH   1   9
TORSDOF 5
REMARK  Name = ../refined-set-2016/1ydt/1ydt_pocket.pdb
REMARK  261 active torsions:
REMARK  status: ('A' for Active; 'I' for Inactive)
REMARK    1  A    between atoms: _1  and  _3
REMARK    2  A    between atoms: _3  and  _4
REMARK    3  A    between atoms: _3  and  _6
REMARK    4  A    between atoms: _6  and  _7
REMARK    5  A    between atoms: _7  and  _8
REMARK    6  A    between atoms: _8  and  _9
REMARK    7  A    between atoms: _9  and  _10
REMARK    8  A    between atoms: _14  and  _16
REMARK    9  A    between atoms: _16  and  _17
REMARK   10  A    between atoms: _16  and  _19
REMARK   11  A    between atoms: _19  and  _20
REMARK   12  A    between atoms: _23  and  _25
REMARK   13  A    between atoms: _25  and  _26
REMARK   14  A    between atoms: _25  and  _28
REMARK   15  A    between atoms: _28  and  _29
REMARK   16  A    between atoms: _32  and  _34
REMARK   17  A    between atoms: _34  and  _35
REMARK   18  A    between atoms: _37  and  _39
REMARK   19  A    between atoms: _39  and  _40
REMARK   20  A    between atoms: _39  and  _42
REMARK   21  A    between atoms: _42  and  _43
REMARK   22  A    between atoms: _46  and  _48
REMARK   23  A    between atoms: _48  and  _49
REMARK   24  A    between atoms: _51  and  _53
REMARK   25  A    between atoms: _53  and  _54
REMARK   26  A    between atoms: _53  and  _56
REMARK   27  A    between atoms: _56  and  _57
REMARK   28  A    between atoms: _59  and  _61
REMARK   29  A    between atoms: _61  and  _62
REMARK   30  A    between atoms: _61  and  _64
REMARK   31  A    between atoms: _64  and  _65
REMARK   32  A    between atoms: _71  and  _73
REMARK   33  A    between atoms: _73  and  _74
REMARK   34  A    between atoms: _76  and  _78
REMARK   35  A    between atoms: _78  and  _79
REMARK   36  A    between atoms: _78  and  _81
REMARK   37  A    between atoms: _81  and  _82
REMARK   38  A    between atoms: _82  and  _83
REMARK   39  A    between atoms: _83  and  _84
REMARK   40  A    between atoms: _93  and  _95
REMARK   41  A    between atoms: _95  and  _96
REMARK   42  A    between atoms: _95  and  _98
REMARK   43  A    between atoms: _101  and  _103
REMARK   44  A    between atoms: _103  and  _104
REMARK   45  A    between atoms: _103  and  _106
REMARK   46  A    between atoms: _106  and  _107
REMARK   47  A    between atoms: _107  and  _108
REMARK   48  A    between atoms: _110  and  _112
REMARK   49  A    between atoms: _112  and  _113
REMARK   50  A    between atoms: _112  and  _115
REMARK   51  A    between atoms: _115  and  _116
REMARK   52  A    between atoms: _119  and  _121
REMARK   53  A    between atoms: _121  and  _122
REMARK   54  A    between atoms: _121  and  _124
REMARK   55  A    between atoms: _124  and  _125
REMARK   56  A    between atoms: _130  and  _131
REMARK   57  A    between atoms: _133  and  _135
REMARK   58  A    between atoms: _135  and  _136
REMARK   59  A    between atoms: _139  and  _141
REMARK   60  A    between atoms: _141  and  _142
REMARK   61  A    between atoms: _141  and  _144
REMARK   62  A    between atoms: _144  and  _145
REMARK   63  A    between atoms: _145  and  _146
REMARK   64  A    between atoms: _148  and  _150
REMARK   65  A    between atoms: _150  and  _151
REMARK   66  A    between atoms: _150  and  _153
REMARK   67  A    between atoms: _153  and  _154
REMARK   68  A    between atoms: _154  and  _155
REMARK   69  A    between atoms: _155  and  _156
REMARK   70  A    between atoms: _156  and  _157
REMARK   71  A    between atoms: _161  and  _163
REMARK   72  A    between atoms: _163  and  _164
REMARK   73  A    between atoms: _163  and  _166
REMARK   74  A    between atoms: _166  and  _167
REMARK   75  A    between atoms: _170  and  _172
REMARK   76  A    between atoms: _172  and  _173
REMARK   77  A    between atoms: _172  and  _175
REMARK   78  A    between atoms: _175  and  _176
REMARK   79  A    between atoms: _179  and  _181
REMARK   80  A    between atoms: _181  and  _182
REMARK   81  A    between atoms: _181  and  _184
REMARK   82  A    between atoms: _184  and  _185
REMARK   83  A    between atoms: _188  and  _190
REMARK   84  A    between atoms: _190  and  _191
REMARK   85  A    between atoms: _190  and  _193
REMARK   86  A    between atoms: _196  and  _198
REMARK   87  A    between atoms: _198  and  _199
REMARK   88  A    between atoms: _198  and  _201
REMARK   89  A    between atoms: _201  and  _202
REMARK   90  A    between atoms: _205  and  _207
REMARK   91  A    between atoms: _207  and  _208
REMARK   92  A    between atoms: _207  and  _210
REMARK   93  A    between atoms: _210  and  _211
REMARK   94  A    between atoms: _211  and  _212
REMARK   95  A    between atoms: _215  and  _217
REMARK   96  A    between atoms: _217  and  _218
REMARK   97  A    between atoms: _217  and  _220
REMARK   98  A    between atoms: _220  and  _221
REMARK   99  A    between atoms: _224  and  _226
REMARK  100  A    between atoms: _226  and  _227
REMARK  101  A    between atoms: _226  and  _229
REMARK  102  A    between atoms: _232  and  _234
REMARK  103  A    between atoms: _234  and  _235
REMARK  104  A    between atoms: _234  and  _237
REMARK  105  A    between atoms: _237  and  _238
REMARK  106  A    between atoms: _238  and  _239
REMARK  107  A    between atoms: _239  and  _240
REMARK  108  A    between atoms: _240  and  _241
REMARK  109  A    between atoms: _245  and  _247
REMARK  110  A    between atoms: _247  and  _248
REMARK  111  A    between atoms: _247  and  _250
REMARK  112  A    between atoms: _250  and  _251
REMARK  113  A    between atoms: _254  and  _256
REMARK  114  A    between atoms: _256  and  _257
REMARK  115  A    between atoms: _256  and  _259
REMARK  116  A    between atoms: _259  and  _260
REMARK  117  A    between atoms: _260  and  _261
REMARK  118  A    between atoms: _263  and  _265
REMARK  119  A    between atoms: _265  and  _266
REMARK  120  A    between atoms: _265  and  _268
REMARK  121  A    between atoms: _271  and  _273
REMARK  122  A    between atoms: _273  and  _274
REMARK  123  A    between atoms: _273  and  _276
REMARK  124  A    between atoms: _276  and  _277
REMARK  125  A    between atoms: _277  and  _278
REMARK  126  A    between atoms: _280  and  _282
REMARK  127  A    between atoms: _282  and  _283
REMARK  128  A    between atoms: _282  and  _285
REMARK  129  A    between atoms: _285  and  _286
REMARK  130  A    between atoms: _286  and  _287
REMARK  131  A    between atoms: _290  and  _292
REMARK  132  A    between atoms: _292  and  _293
REMARK  133  A    between atoms: _292  and  _295
REMARK  134  A    between atoms: _295  and  _296
REMARK  135  A    between atoms: _301  and  _302
REMARK  136  A    between atoms: _304  and  _306
REMARK  137  A    between atoms: _306  and  _307
REMARK  138  A    between atoms: _306  and  _309
REMARK  139  A    between atoms: _312  and  _314
REMARK  140  A    between atoms: _314  and  _315
REMARK  141  A    between atoms: _318  and  _320
REMARK  142  A    between atoms: _320  and  _321
REMARK  143  A    between atoms: _323  and  _325
REMARK  144  A    between atoms: _325  and  _326
REMARK  145  A    between atoms: _328  and  _330
REMARK  146  A    between atoms: _330  and  _331
REMARK  147  A    between atoms: _330  and  _333
REMARK  148  A    between atoms: _333  and  _334
REMARK  149  A    between atoms: _334  and  _335
REMARK  150  A    between atoms: _338  and  _340
REMARK  151  A    between atoms: _340  and  _341
REMARK  152  A    between atoms: _340  and  _343
REMARK  153  A    between atoms: _343  and  _344
REMARK  154  A    between atoms: _344  and  _345
REMARK  155  A    between atoms: _347  and  _349
REMARK  156  A    between atoms: _349  and  _350
REMARK  157  A    between atoms: _349  and  _352
REMARK  158  A    between atoms: _352  and  _353
REMARK  159  A    between atoms: _359  and  _361
REMARK  160  A    between atoms: _361  and  _362
REMARK  161  A    between atoms: _361  and  _364
REMARK  162  A    between atoms: _364  and  _365
REMARK  163  A    between atoms: _370  and  _371
REMARK  164  A    between atoms: _373  and  _375
REMARK  165  A    between atoms: _375  and  _376
REMARK  166  A    between atoms: _375  and  _378
REMARK  167  A    between atoms: _378  and  _379
REMARK  168  A    between atoms: _382  and  _384
REMARK  169  A    between atoms: _384  and  _385
REMARK  170  A    between atoms: _384  and  _387
REMARK  171  A    between atoms: _387  and  _388
REMARK  172  A    between atoms: _388  and  _389
REMARK  173  A    between atoms: _389  and  _390
REMARK  174  A    between atoms: _390  and  _391
REMARK  175  A    between atoms: _396  and  _397
REMARK  176  A    between atoms: _402  and  _404
REMARK  177  A    between atoms: _404  and  _405
REMARK  178  A    between atoms: _404  and  _407
REMARK  179  A    between atoms: _407  and  _408
REMARK  180  A    between atoms: _408  and  _409
REMARK  181  A    between atoms: _412  and  _414
REMARK  182  A    between atoms: _414  and  _415
REMARK  183  A    between atoms: _414  and  _417
REMARK  184  A    between atoms: _417  and  _418
REMARK  185  A    between atoms: _423  and  _425
REMARK  186  A    between atoms: _425  and  _426
REMARK  187  A    between atoms: _425  and  _428
REMARK  188  A    between atoms: _428  and  _429
REMARK  189  A    between atoms: _432  and  _434
REMARK  190  A    between atoms: _434  and  _435
REMARK  191  A    between atoms: _434  and  _437
REMARK  192  A    between atoms: _437  and  _438
REMARK  193  A    between atoms: _441  and  _443
REMARK  194  A    between atoms: _443  and  _444
REMARK  195  A    between atoms: _443  and  _446
REMARK  196  A    between atoms: _446  and  _447
REMARK  197  A    between atoms: _450  and  _452
REMARK  198  A    between atoms: _452  and  _453
REMARK  199  A    between atoms: _452  and  _455
REMARK  200  A    between atoms: _455  and  _456
REMARK  201  A    between atoms: _459  and  _461
REMARK  202  A    between atoms: _461  and  _462
REMARK  203  A    between atoms: _461  and  _464
REMARK  204  A    between atoms: _464  and  _465
REMARK  205  A    between atoms: _465  and  _466
REMARK  206  A    between atoms: _471  and  _473
REMARK  207  A    between atoms: _473  and  _474
REMARK  208  A    between atoms: _473  and  _476
REMARK  209  A    between atoms: _479  and  _481
REMARK  210  A    between atoms: _481  and  _482
REMARK  211  A    between atoms: _481  and  _484
REMARK  212  A    between atoms: _484  and  _485
REMARK  213  A    between atoms: _488  and  _490
REMARK  214  A    between atoms: _490  and  _491
REMARK  215  A    between atoms: _490  and  _493
REMARK  216  A    between atoms: _493  and  _494
REMARK  217  A    between atoms: _497  and  _499
REMARK  218  A    between atoms: _499  and  _500
REMARK  219  A    between atoms: _499  and  _502
REMARK  220  A    between atoms: _502  and  _503
REMARK  221  A    between atoms: _509  and  _511
REMARK  222  A    between atoms: _511  and  _512
REMARK  223  A    between atoms: _514  and  _516
REMARK  224  A    between atoms: _516  and  _517
REMARK  225  A    between atoms: _516  and  _519
REMARK  226  A    between atoms: _519  and  _520
REMARK  227  A    between atoms: _523  and  _525
REMARK  228  A    between atoms: _525  and  _526
REMARK  229  A    between atoms: _525  and  _528
REMARK  230  A    between atoms: _528  and  _529
REMARK  231  A    between atoms: _534  and  _536
REMARK  232  A    between atoms: _536  and  _537
REMARK  233  A    between atoms: _536  and  _539
REMARK  234  A    between atoms: _539  and  _540
REMARK  235  A    between atoms: _546  and  _548
REMARK  236  A    between atoms: _548  and  _549
REMARK  237  A    between atoms: _548  and  _551
REMARK  238  A    between atoms: _551  and  _552
REMARK  239  A    between atoms: _555  and  _557
REMARK  240  A    between atoms: _557  and  _558
REMARK  241  A    between atoms: _557  and  _560
REMARK  242  A    between atoms: _560  and  _561
REMARK  243  A    between atoms: _566  and  _567
REMARK  244  A    between atoms: _569  and  _571
REMARK  245  A    between atoms: _571  and  _572
REMARK  246  A    between atoms: _571  and  _574
REMARK  247  A    between atoms: _574  and  _575
REMARK  248  A    between atoms: _575  and  _576
REMARK  249  A    between atoms: _576  and  _577
REMARK  250  A    between atoms: _586  and  _588
REMARK  251  A    between atoms: _588  and  _589
REMARK  252  A    between atoms: _588  and  _591
REMARK  253  A    between atoms: _591  and  _592
REMARK  254  A    between atoms: _592  and  _593
REMARK  255  A    between atoms: _593  and  _594
REMARK  256  A    between atoms: _603  and  _605
REMARK  257  A    between atoms: _605  and  _606
REMARK  258  A    between atoms: _605  and  _608
REMARK  259  A    between atoms: _608  and  _609
REMARK  260  A    between atoms: _614  and  _616
REMARK  261  A    between atoms: _616  and  _617
REMARK                            x       y       z     vdW  Elec       q    Type
REMARK                         _______ _______ _______ _____ _____    ______ ____
ROOT
ATOM      1  CA  ASP A   1      14.453   1.036  -4.099  0.00  0.00    +0.144 C 
ENDROOT
BRANCH   1   2
ATOM      2  N   ASP A   1      14.056   0.494  -5.412  0.00  0.00    -0.239 NA
ATOM      3  H   ASP A   1      13.080   0.167  -5.560  0.00  0.00    +0.142 HD
ENDBRANCH   1   2
BRANCH   1   4
ATOM      4  C   ASP A   1      13.677   0.452  -2.928  0.00  0.00    +0.225 C 
ATOM      5  O   ASP A   1      13.290   1.171  -2.017  0.00  0.00    -0.287 OA
ENDBRANCH   1   4
BRANCH   1   6
ATOM      6  CB  ASP A   1      14.385   2.576  -4.035  0.00  0.00    +0.139 C 
BRANCH   6   7
ATOM      7  CG  ASP A   1      15.355   3.174  -2.989  0.00  0.00    +0.367 C 
ATOM      8  OD2 ASP A   1      16.182   2.436  -2.416  0.00  0.00    -0.246 OA
ATOM      9  OD1 ASP A   1      15.327   4.400  -2.766  0.00  0.00    -0.246 OA
ENDBRANCH   6   7
ENDBRANCH   1   6
TORSDOF 4
REMARK  Name = ../refined-set-2016/1ydt/1ydt_pocket.pdb
REMARK  261 active torsions:
REMARK  status: ('A' for Active; 'I' for Inactive)
REMARK    1  A    between atoms: _1  and  _3
REMARK    2  A    between atoms: _3  and  _4
REMARK    3  A    between atoms: _3  and  _6
REMARK    4  A    between atoms: _6  and  _7
REMARK    5  A    between atoms: _7  and  _8
REMARK    6  A    between atoms: _8  and  _9
REMARK    7  A    between atoms: _9  and  _10
REMARK    8  A    between atoms: _14  and  _16
REMARK    9  A    between atoms: _16  and  _17
REMARK   10  A    between atoms: _16  and  _19
REMARK   11  A    between atoms: _19  and  _20
REMARK   12  A    between atoms: _23  and  _25
REMARK   13  A    between atoms: _25  and  _26
REMARK   14  A    between atoms: _25  and  _28
REMARK   15  A    between atoms: _28  and  _29
REMARK   16  A    between atoms: _32  and  _34
REMARK   17  A    between atoms: _34  and  _35
REMARK   18  A    between atoms: _37  and  _39
REMARK   19  A    between atoms: _39  and  _40
REMARK   20  A    between atoms: _39  and  _42
REMARK   21  A    between atoms: _42  and  _43
REMARK   22  A    between atoms: _46  and  _48
REMARK   23  A    between atoms: _48  and  _49
REMARK   24  A    between atoms: _51  and  _53
REMARK   25  A    between atoms: _53  and  _54
REMARK   26  A    between atoms: _53  and  _56
REMARK   27  A    between atoms: _56  and  _57
REMARK   28  A    between atoms: _59  and  _61
REMARK   29  A    between atoms: _61  and  _62
REMARK   30  A    between atoms: _61  and  _64
REMARK   31  A    between atoms: _64  and  _65
REMARK   32  A    between atoms: _71  and  _73
REMARK   33  A    between atoms: _73  and  _74
REMARK   34  A    between atoms: _76  and  _78
REMARK   35  A    between atoms: _78  and  _79
REMARK   36  A    between atoms: _78  and  _81
REMARK   37  A    between atoms: _81  and  _82
REMARK   38  A    between atoms: _82  and  _83
REMARK   39  A    between atoms: _83  and  _84
REMARK   40  A    between atoms: _93  and  _95
REMARK   41  A    between atoms: _95  and  _96
REMARK   42  A    between atoms: _95  and  _98
REMARK   43  A    between atoms: _101  and  _103
REMARK   44  A    between atoms: _103  and  _104
REMARK   45  A    between atoms: _103  and  _106
REMARK   46  A    between atoms: _106  and  _107
REMARK   47  A    between atoms: _107  and  _108
REMARK   48  A    between atoms: _110  and  _112
REMARK   49  A    between atoms: _112  and  _113
REMARK   50  A    between atoms: _112  and  _115
REMARK   51  A    between atoms: _115  and  _116
REMARK   52  A    between atoms: _119  and  _121
REMARK   53  A    between atoms: _121  and  _122
REMARK   54  A    between atoms: _121  and  _124
REMARK   55  A    between atoms: _124  and  _125
REMARK   56  A    between atoms: _130  and  _131
REMARK   57  A    between atoms: _133  and  _135
REMARK   58  A    between atoms: _135  and  _136
REMARK   59  A    between atoms: _139  and  _141
REMARK   60  A    between atoms: _141  and  _142
REMARK   61  A    between atoms: _141  and  _144
REMARK   62  A    between atoms: _144  and  _145
REMARK   63  A    between atoms: _145  and  _146
REMARK   64  A    between atoms: _148  and  _150
REMARK   65  A    between atoms: _150  and  _151
REMARK   66  A    between atoms: _150  and  _153
REMARK   67  A    between atoms: _153  and  _154
REMARK   68  A    between atoms: _154  and  _155
REMARK   69  A    between atoms: _155  and  _156
REMARK   70  A    between atoms: _156  and  _157
REMARK   71  A    between atoms: _161  and  _163
REMARK   72  A    between atoms: _163  and  _164
REMARK   73  A    between atoms: _163  and  _166
REMARK   74  A    between atoms: _166  and  _167
REMARK   75  A    between atoms: _170  and  _172
REMARK   76  A    between atoms: _172  and  _173
REMARK   77  A    between atoms: _172  and  _175
REMARK   78  A    between atoms: _175  and  _176
REMARK   79  A    between atoms: _179  and  _181
REMARK   80  A    between atoms: _181  and  _182
REMARK   81  A    between atoms: _181  and  _184
REMARK   82  A    between atoms: _184  and  _185
REMARK   83  A    between atoms: _188  and  _190
REMARK   84  A    between atoms: _190  and  _191
REMARK   85  A    between atoms: _190  and  _193
REMARK   86  A    between atoms: _196  and  _198
REMARK   87  A    between atoms: _198  and  _199
REMARK   88  A    between atoms: _198  and  _201
REMARK   89  A    between atoms: _201  and  _202
REMARK   90  A    between atoms: _205  and  _207
REMARK   91  A    between atoms: _207  and  _208
REMARK   92  A    between atoms: _207  and  _210
REMARK   93  A    between atoms: _210  and  _211
REMARK   94  A    between atoms: _211  and  _212
REMARK   95  A    between atoms: _215  and  _217
REMARK   96  A    between atoms: _217  and  _218
REMARK   97  A    between atoms: _217  and  _220
REMARK   98  A    between atoms: _220  and  _221
REMARK   99  A    between atoms: _224  and  _226
REMARK  100  A    between atoms: _226  and  _227
REMARK  101  A    between atoms: _226  and  _229
REMARK  102  A    between atoms: _232  and  _234
REMARK  103  A    between atoms: _234  and  _235
REMARK  104  A    between atoms: _234  and  _237
REMARK  105  A    between atoms: _237  and  _238
REMARK  106  A    between atoms: _238  and  _239
REMARK  107  A    between atoms: _239  and  _240
REMARK  108  A    between atoms: _240  and  _241
REMARK  109  A    between atoms: _245  and  _247
REMARK  110  A    between atoms: _247  and  _248
REMARK  111  A    between atoms: _247  and  _250
REMARK  112  A    between atoms: _250  and  _251
REMARK  113  A    between atoms: _254  and  _256
REMARK  114  A    between atoms: _256  and  _257
REMARK  115  A    between atoms: _256  and  _259
REMARK  116  A    between atoms: _259  and  _260
REMARK  117  A    between atoms: _260  and  _261
REMARK  118  A    between atoms: _263  and  _265
REMARK  119  A    between atoms: _265  and  _266
REMARK  120  A    between atoms: _265  and  _268
REMARK  121  A    between atoms: _271  and  _273
REMARK  122  A    between atoms: _273  and  _274
REMARK  123  A    between atoms: _273  and  _276
REMARK  124  A    between atoms: _276  and  _277
REMARK  125  A    between atoms: _277  and  _278
REMARK  126  A    between atoms: _280  and  _282
REMARK  127  A    between atoms: _282  and  _283
REMARK  128  A    between atoms: _282  and  _285
REMARK  129  A    between atoms: _285  and  _286
REMARK  130  A    between atoms: _286  and  _287
REMARK  131  A    between atoms: _290  and  _292
REMARK  132  A    between atoms: _292  and  _293
REMARK  133  A    between atoms: _292  and  _295
REMARK  134  A    between atoms: _295  and  _296
REMARK  135  A    between atoms: _301  and  _302
REMARK  136  A    between atoms: _304  and  _306
REMARK  137  A    between atoms: _306  and  _307
REMARK  138  A    between atoms: _306  and  _309
REMARK  139  A    between atoms: _312  and  _314
REMARK  140  A    between atoms: _314  and  _315
REMARK  141  A    between atoms: _318  and  _320
REMARK  142  A    between atoms: _320  and  _321
REMARK  143  A    between atoms: _323  and  _325
REMARK  144  A    between atoms: _325  and  _326
REMARK  145  A    between atoms: _328  and  _330
REMARK  146  A    between atoms: _330  and  _331
REMARK  147  A    between atoms: _330  and  _333
REMARK  148  A    between atoms: _333  and  _334
REMARK  149  A    between atoms: _334  and  _335
REMARK  150  A    between atoms: _338  and  _340
REMARK  151  A    between atoms: _340  and  _341
REMARK  152  A    between atoms: _340  and  _343
REMARK  153  A    between atoms: _343  and  _344
REMARK  154  A    between atoms: _344  and  _345
REMARK  155  A    between atoms: _347  and  _349
REMARK  156  A    between atoms: _349  and  _350
REMARK  157  A    between atoms: _349  and  _352
REMARK  158  A    between atoms: _352  and  _353
REMARK  159  A    between atoms: _359  and  _361
REMARK  160  A    between atoms: _361  and  _362
REMARK  161  A    between atoms: _361  and  _364
REMARK  162  A    between atoms: _364  and  _365
REMARK  163  A    between atoms: _370  and  _371
REMARK  164  A    between atoms: _373  and  _375
REMARK  165  A    between atoms: _375  and  _376
REMARK  166  A    between atoms: _375  and  _378
REMARK  167  A    between atoms: _378  and  _379
REMARK  168  A    between atoms: _382  and  _384
REMARK  169  A    between atoms: _384  and  _385
REMARK  170  A    between atoms: _384  and  _387
REMARK  171  A    between atoms: _387  and  _388
REMARK  172  A    between atoms: _388  and  _389
REMARK  173  A    between atoms: _389  and  _390
REMARK  174  A    between atoms: _390  and  _391
REMARK  175  A    between atoms: _396  and  _397
REMARK  176  A    between atoms: _402  and  _404
REMARK  177  A    between atoms: _404  and  _405
REMARK  178  A    between atoms: _404  and  _407
REMARK  179  A    between atoms: _407  and  _408
REMARK  180  A    between atoms: _408  and  _409
REMARK  181  A    between atoms: _412  and  _414
REMARK  182  A    between atoms: _414  and  _415
REMARK  183  A    between atoms: _414  and  _417
REMARK  184  A    between atoms: _417  and  _418
REMARK  185  A    between atoms: _423  and  _425
REMARK  186  A    between atoms: _425  and  _426
REMARK  187  A    between atoms: _425  and  _428
REMARK  188  A    between atoms: _428  and  _429
REMARK  189  A    between atoms: _432  and  _434
REMARK  190  A    between atoms: _434  and  _435
REMARK  191  A    between atoms: _434  and  _437
REMARK  192  A    between atoms: _437  and  _438
REMARK  193  A    between atoms: _441  and  _443
REMARK  194  A    between atoms: _443  and  _444
REMARK  195  A    between atoms: _443  and  _446
REMARK  196  A    between atoms: _446  and  _447
REMARK  197  A    between atoms: _450  and  _452
REMARK  198  A    between atoms: _452  and  _453
REMARK  199  A    between atoms: _452  and  _455
REMARK  200  A    between atoms: _455  and  _456
REMARK  201  A    between atoms: _459  and  _461
REMARK  202  A    between atoms: _461  and  _462
REMARK  203  A    between atoms: _461  and  _464
REMARK  204  A    between atoms: _464  and  _465
REMARK  205  A    between atoms: _465  and  _466
REMARK  206  A    between atoms: _471  and  _473
REMARK  207  A    between atoms: _473  and  _474
REMARK  208  A    between atoms: _473  and  _476
REMARK  209  A    between atoms: _479  and  _481
REMARK  210  A    between atoms: _481  and  _482
REMARK  211  A    between atoms: _481  and  _484
REMARK  212  A    between atoms: _484  and  _485
REMARK  213  A    between atoms: _488  and  _490
REMARK  214  A    between atoms: _490  and  _491
REMARK  215  A    between atoms: _490  and  _493
REMARK  216  A    between atoms: _493  and  _494
REMARK  217  A    between atoms: _497  and  _499
REMARK  218  A    between atoms: _499  and  _500
REMARK  219  A    between atoms: _499  and  _502
REMARK  220  A    between atoms: _502  and  _503
REMARK  221  A    between atoms: _509  and  _511
REMARK  222  A    between atoms: _511  and  _512
REMARK  223  A    between atoms: _514  and  _516
REMARK  224  A    between atoms: _516  and  _517
REMARK  225  A    between atoms: _516  and  _519
REMARK  226  A    between atoms: _519  and  _520
REMARK  227  A    between atoms: _523  and  _525
REMARK  228  A    between atoms: _525  and  _526
REMARK  229  A    between atoms: _525  and  _528
REMARK  230  A    between atoms: _528  and  _529
REMARK  231  A    between atoms: _534  and  _536
REMARK  232  A    between atoms: _536  and  _537
REMARK  233  A    between atoms: _536  and  _539
REMARK  234  A    between atoms: _539  and  _540
REMARK  235  A    between atoms: _546  and  _548
REMARK  236  A    between atoms: _548  and  _549
REMARK  237  A    between atoms: _548  and  _551
REMARK  238  A    between atoms: _551  and  _552
REMARK  239  A    between atoms: _555  and  _557
REMARK  240  A    between atoms: _557  and  _558
REMARK  241  A    between atoms: _557  and  _560
REMARK  242  A    between atoms: _560  and  _561
REMARK  243  A    between atoms: _566  and  _567
REMARK  244  A    between atoms: _569  and  _571
REMARK  245  A    between atoms: _571  and  _572
REMARK  246  A    between atoms: _571  and  _574
REMARK  247  A    between atoms: _574  and  _575
REMARK  248  A    between atoms: _575  and  _576
REMARK  249  A    between atoms: _576  and  _577
REMARK  250  A    between atoms: _586  and  _588
REMARK  251  A    between atoms: _588  and  _589
REMARK  252  A    between atoms: _588  and  _591
REMARK  253  A    between atoms: _591  and  _592
REMARK  254  A    between atoms: _592  and  _593
REMARK  255  A    between atoms: _593  and  _594
REMARK  256  A    between atoms: _603  and  _605
REMARK  257  A    between atoms: _605  and  _606
REMARK  258  A    between atoms: _605  and  _608
REMARK  259  A    between atoms: _608  and  _609
REMARK  260  A    between atoms: _614  and  _616
REMARK  261  A    between atoms: _616  and  _617
REMARK                            x       y       z     vdW  Elec       q    Type
REMARK                         _______ _______ _______ _____ _____    ______ ____
ROOT
ATOM      1  CA  ASN A   4      10.238   3.333   1.800  0.00  0.00    +0.158 C 
ENDROOT
BRANCH   1   4
ATOM      2  C   GLU A   3      11.360   3.565   3.956  0.00  0.00    +0.241 C 
ATOM      3  O   GLU A   3      10.817   4.657   4.133  0.00  0.00    -0.273 OA
ATOM      4  N   ASN A   4      11.161   2.847   2.856  0.00  0.00    -0.297 N 
ATOM      5  H   ASN A   4      11.655   1.940   2.734  0.00  0.00    +0.150 HD
BRANCH   2   6
ATOM      6  CA  GLU A   3      12.340   3.021   4.971  0.00  0.00    +0.149 C 
BRANCH   6   9
ATOM      7  C   PRO A   2      11.440   0.785   5.201  0.00  0.00    +0.241 C 
ATOM      8  O   PRO A   2      10.327   1.232   5.516  0.00  0.00    -0.273 OA
ATOM      9  N   GLU A   3      12.448   1.580   4.881  0.00  0.00    -0.297 N 
ATOM     10  H   GLU A   3      13.342   1.159   4.556  0.00  0.00    +0.150 HD
BRANCH   7  13
ATOM     11  C   LYS A   1      12.589  -0.691   2.751  0.00  0.00    +0.241 C 
ATOM     12  N   PRO A   2      12.671  -1.092   4.034  0.00  0.00    -0.272 N 
ATOM     13  CA  PRO A   2      11.701  -0.735   5.077  0.00  0.00    +0.152 C 
ATOM     14  CB  PRO A   2      12.361  -1.285   6.324  0.00  0.00    +0.031 C 
ATOM     15  CG  PRO A   2      12.994  -2.551   5.835  0.00  0.00    +0.024 C 
ATOM     16  CD  PRO A   2      13.638  -2.093   4.532  0.00  0.00    +0.094 C 
ATOM     17  O   LYS A   1      11.623  -0.056   2.320  0.00  0.00    -0.273 OA
BRANCH  11  18
ATOM     18  CA  LYS A   1      13.680  -1.145   1.798  0.00  0.00    +0.145 C 
BRANCH  18  19
ATOM     19  N   LYS A   1      13.059  -1.076   0.483  0.00  0.00    -0.238 NA
ATOM     20  H   LYS A   1      12.152  -0.575   0.397  0.00  0.00    +0.142 HD
ENDBRANCH  18  19
BRANCH  18  21
ATOM     21  CB  LYS A   1      14.897  -0.227   1.902  0.00  0.00    +0.026 C 
BRANCH  21  22
ATOM     22  CG  LYS A   1      14.592   1.240   1.662  0.00  0.00    -0.000 C 
BRANCH  22  23
ATOM     23  CD  LYS A   1      15.863   2.055   1.502  0.00  0.00    -0.024 C 
BRANCH  23  24
ATOM     24  CE  LYS A   1      15.520   3.441   1.039  0.00  0.00    -0.086 C 
BRANCH  24  25
ATOM     25  NZ  LYS A   1      16.705   4.272   0.855  0.00  0.00    +0.380 N 
ATOM     26  HZ1 LYS A   1      17.216   4.350   1.758  0.00  0.00    -0.089 HD
ATOM     27  HZ2 LYS A   1      16.417   5.219   0.535  0.00  0.00    -0.089 HD
ATOM     28  HZ3 LYS A   1      17.324   3.837   0.142  0.00  0.00    -0.089 HD
ENDBRANCH  24  25
ENDBRANCH  23  24
ENDBRANCH  22  23
ENDBRANCH  21  22
ENDBRANCH  18  21
ENDBRANCH  11  18
ENDBRANCH   7  13
ENDBRANCH   6   9
BRANCH   6  29
ATOM     29  CB  GLU A   3      13.698   3.687   4.716  0.00  0.00    +0.041 C 
BRANCH  29  30
ATOM     30  CG  GLU A   3      14.816   3.422   5.727  0.00  0.00    +0.116 C 
BRANCH  30  31
ATOM     31  CD  GLU A   3      15.586   2.117   5.502  0.00  0.00    +0.365 C 
ATOM     32  OE2 GLU A   3      16.829   2.124   5.627  0.00  0.00    -0.246 OA
ATOM     33  OE1 GLU A   3      14.972   1.061   5.266  0.00  0.00    -0.246 OA
ENDBRANCH  30  31
ENDBRANCH  29  30
ENDBRANCH   6  29
ENDBRANCH   2   6
ENDBRANCH   1   4
BRANCH   1  34
ATOM     34  C   ASN A   4       8.830   2.779   1.823  0.00  0.00    +0.241 C 
ATOM     35  N   LEU A   5       8.551   1.895   2.774  0.00  0.00    -0.297 N 
ATOM     36  H   LEU A   5       9.312   1.612   3.424  0.00  0.00    +0.150 HD
ATOM     37  O   ASN A   4       8.045   3.089   0.937  0.00  0.00    -0.273 OA
BRANCH  35  38
ATOM     38  CA  LEU A   5       7.229   1.300   2.953  0.00  0.00    +0.149 C 
BRANCH  38  39
ATOM     39  C   LEU A   5       6.583   1.901   4.192  0.00  0.00    +0.241 C 
ATOM     40  O   LEU A   5       7.157   1.879   5.284  0.00  0.00    -0.273 OA
ATOM     41  N   LEU A   6       5.394   2.442   4.020  0.00  0.00    -0.297 N 
ATOM     42  H   LEU A   6       4.968   2.435   3.071  0.00  0.00    +0.150 HD
BRANCH  41  43
ATOM     43  CA  LEU A   6       4.668   3.042   5.107  0.00  0.00    +0.149 C 
BRANCH  43  44
ATOM     44  C   LEU A   6       3.444   2.184   5.460  0.00  0.00    +0.241 C 
ATOM     45  N   ILE A   7       2.971   2.276   6.710  0.00  0.00    -0.297 N 
ATOM     46  H   ILE A   7       3.456   2.911   7.376  0.00  0.00    +0.150 HD
ATOM     47  O   LEU A   6       2.966   1.417   4.616  0.00  0.00    -0.273 OA
BRANCH  45  48
ATOM     48  CA  ILE A   7       1.796   1.521   7.189  0.00  0.00    +0.149 C 
BRANCH  48  49
ATOM     49  C   ILE A   7       0.613   2.473   7.293  0.00  0.00    +0.241 C 
ATOM     50  O   ILE A   7       0.744   3.526   7.889  0.00  0.00    -0.273 OA
ATOM     51  N   ASP A   8      -0.531   2.141   6.714  0.00  0.00    -0.298 N 
ATOM     52  H   ASP A   8      -0.604   1.245   6.191  0.00  0.00    +0.150 HD
BRANCH  51  53
ATOM     53  CA  ASP A   8      -1.698   3.030   6.805  0.00  0.00    +0.148 C 
BRANCH  53  54
ATOM     54  C   ASP A   8      -2.663   2.660   7.952  0.00  0.00    +0.227 C 
ATOM     55  O   ASP A   8      -2.515   1.610   8.580  0.00  0.00    -0.286 OA
ENDBRANCH  53  54
BRANCH  53  56
ATOM     56  CB  ASP A   8      -2.461   3.080   5.461  0.00  0.00    +0.142 C 
BRANCH  56  57
ATOM     57  CG  ASP A   8      -3.207   1.785   5.141  0.00  0.00    +0.367 C 
ATOM     58  OD2 ASP A   8      -3.136   0.796   5.877  0.00  0.00    -0.246 OA
ATOM     59  OD1 ASP A   8      -3.875   1.744   4.110  0.00  0.00    -0.246 OA
ENDBRANCH  56  57
ENDBRANCH  53  56
ENDBRANCH  51  53
ENDBRANCH  48  49
BRANCH  48  60
ATOM     60  CB  ILE A   7       2.038   0.979   8.594  0.00  0.00    +0.027 C 
ATOM     61  CG2 ILE A   7       1.067  -0.117   8.892  0.00  0.00    +0.002 C 
BRANCH  60  62
ATOM     62  CG1 ILE A   7       3.502   0.545   8.751  0.00  0.00    +0.002 C 
ATOM     63  CD1 ILE A   7       3.755  -0.884   8.498  0.00  0.00    +0.000 C 
ENDBRANCH  60  62
ENDBRANCH  48  60
ENDBRANCH  45  48
ENDBRANCH  43  44
BRANCH  43  64
ATOM     64  CB  LEU A   6       4.260   4.439   4.669  0.00  0.00    +0.029 C 
BRANCH  64  65
ATOM     65  CG  LEU A   6       5.465   5.378   4.532  0.00  0.00    +0.002 C 
ATOM     66  CD2 LEU A   6       5.836   5.814   5.932  0.00  0.00    +0.000 C 
ATOM     67  CD1 LEU A   6       5.159   6.608   3.716  0.00  0.00    +0.000 C 
ENDBRANCH  64  65
ENDBRANCH  43  64
ENDBRANCH  41  43
ENDBRANCH  38  39
BRANCH  38  68
ATOM     68  CB  LEU A   5       7.328  -0.198   3.169  0.00  0.00    +0.029 C 
BRANCH  68  69
ATOM     69  CG  LEU A   5       8.129  -0.946   2.131  0.00  0.00    +0.002 C 
ATOM     70  CD2 LEU A   5       7.991  -2.433   2.427  0.00  0.00    +0.000 C 
ATOM     71  CD1 LEU A   5       7.615  -0.609   0.747  0.00  0.00    +0.000 C 
ENDBRANCH  68  69
ENDBRANCH  38  68
ENDBRANCH  35  38
ENDBRANCH   1  34
BRANCH   1  72
ATOM     72  CB  ASN A   4      10.821   3.143   0.380  0.00  0.00    +0.114 C 
BRANCH  72  73
ATOM     73  CG  ASN A   4      11.961   4.096   0.080  0.00  0.00    +0.222 C 
ATOM     74  OD1 ASN A   4      12.227   5.010   0.854  0.00  0.00    -0.275 OA
ATOM     75  ND2 ASN A   4      12.653   3.869  -1.033  0.00  0.00    -0.329 N 
ATOM     76 HD21 ASN A   4      13.458   4.480  -1.278  0.00  0.00    +0.145 HD
ATOM     77 HD22 ASN A   4      12.389   3.081  -1.658  0.00  0.00    +0.145 HD
ENDBRANCH  72  73
ENDBRANCH   1  72
TORSDOF 33
REMARK  Name = ../refined-set-2016/1ydt/1ydt_pocket.pdb
REMARK  261 active torsions:
REMARK  status: ('A' for Active; 'I' for Inactive)
REMARK    1  A    between atoms: _1  and  _3
REMARK    2  A    between atoms: _3  and  _4
REMARK    3  A    between atoms: _3  and  _6
REMARK    4  A    between atoms: _6  and  _7
REMARK    5  A    between atoms: _7  and  _8
REMARK    6  A    between atoms: _8  and  _9
REMARK    7  A    between atoms: _9  and  _10
REMARK    8  A    between atoms: _14  and  _16
REMARK    9  A    between atoms: _16  and  _17
REMARK   10  A    between atoms: _16  and  _19
REMARK   11  A    between atoms: _19  and  _20
REMARK   12  A    between atoms: _23  and  _25
REMARK   13  A    between atoms: _25  and  _26
REMARK   14  A    between atoms: _25  and  _28
REMARK   15  A    between atoms: _28  and  _29
REMARK   16  A    between atoms: _32  and  _34
REMARK   17  A    between atoms: _34  and  _35
REMARK   18  A    between atoms: _37  and  _39
REMARK   19  A    between atoms: _39  and  _40
REMARK   20  A    between atoms: _39  and  _42
REMARK   21  A    between atoms: _42  and  _43
REMARK   22  A    between atoms: _46  and  _48
REMARK   23  A    between atoms: _48  and  _49
REMARK   24  A    between atoms: _51  and  _53
REMARK   25  A    between atoms: _53  and  _54
REMARK   26  A    between atoms: _53  and  _56
REMARK   27  A    between atoms: _56  and  _57
REMARK   28  A    between atoms: _59  and  _61
REMARK   29  A    between atoms: _61  and  _62
REMARK   30  A    between atoms: _61  and  _64
REMARK   31  A    between atoms: _64  and  _65
REMARK   32  A    between atoms: _71  and  _73
REMARK   33  A    between atoms: _73  and  _74
REMARK   34  A    between atoms: _76  and  _78
REMARK   35  A    between atoms: _78  and  _79
REMARK   36  A    between atoms: _78  and  _81
REMARK   37  A    between atoms: _81  and  _82
REMARK   38  A    between atoms: _82  and  _83
REMARK   39  A    between atoms: _83  and  _84
REMARK   40  A    between atoms: _93  and  _95
REMARK   41  A    between atoms: _95  and  _96
REMARK   42  A    between atoms: _95  and  _98
REMARK   43  A    between atoms: _101  and  _103
REMARK   44  A    between atoms: _103  and  _104
REMARK   45  A    between atoms: _103  and  _106
REMARK   46  A    between atoms: _106  and  _107
REMARK   47  A    between atoms: _107  and  _108
REMARK   48  A    between atoms: _110  and  _112
REMARK   49  A    between atoms: _112  and  _113
REMARK   50  A    between atoms: _112  and  _115
REMARK   51  A    between atoms: _115  and  _116
REMARK   52  A    between atoms: _119  and  _121
REMARK   53  A    between atoms: _121  and  _122
REMARK   54  A    between atoms: _121  and  _124
REMARK   55  A    between atoms: _124  and  _125
REMARK   56  A    between atoms: _130  and  _131
REMARK   57  A    between atoms: _133  and  _135
REMARK   58  A    between atoms: _135  and  _136
REMARK   59  A    between atoms: _139  and  _141
REMARK   60  A    between atoms: _141  and  _142
REMARK   61  A    between atoms: _141  and  _144
REMARK   62  A    between atoms: _144  and  _145
REMARK   63  A    between atoms: _145  and  _146
REMARK   64  A    between atoms: _148  and  _150
REMARK   65  A    between atoms: _150  and  _151
REMARK   66  A    between atoms: _150  and  _153
REMARK   67  A    between atoms: _153  and  _154
REMARK   68  A    between atoms: _154  and  _155
REMARK   69  A    between atoms: _155  and  _156
REMARK   70  A    between atoms: _156  and  _157
REMARK   71  A    between atoms: _161  and  _163
REMARK   72  A    between atoms: _163  and  _164
REMARK   73  A    between atoms: _163  and  _166
REMARK   74  A    between atoms: _166  and  _167
REMARK   75  A    between atoms: _170  and  _172
REMARK   76  A    between atoms: _172  and  _173
REMARK   77  A    between atoms: _172  and  _175
REMARK   78  A    between atoms: _175  and  _176
REMARK   79  A    between atoms: _179  and  _181
REMARK   80  A    between atoms: _181  and  _182
REMARK   81  A    between atoms: _181  and  _184
REMARK   82  A    between atoms: _184  and  _185
REMARK   83  A    between atoms: _188  and  _190
REMARK   84  A    between atoms: _190  and  _191
REMARK   85  A    between atoms: _190  and  _193
REMARK   86  A    between atoms: _196  and  _198
REMARK   87  A    between atoms: _198  and  _199
REMARK   88  A    between atoms: _198  and  _201
REMARK   89  A    between atoms: _201  and  _202
REMARK   90  A    between atoms: _205  and  _207
REMARK   91  A    between atoms: _207  and  _208
REMARK   92  A    between atoms: _207  and  _210
REMARK   93  A    between atoms: _210  and  _211
REMARK   94  A    between atoms: _211  and  _212
REMARK   95  A    between atoms: _215  and  _217
REMARK   96  A    between atoms: _217  and  _218
REMARK   97  A    between atoms: _217  and  _220
REMARK   98  A    between atoms: _220  and  _221
REMARK   99  A    between atoms: _224  and  _226
REMARK  100  A    between atoms: _226  and  _227
REMARK  101  A    between atoms: _226  and  _229
REMARK  102  A    between atoms: _232  and  _234
REMARK  103  A    between atoms: _234  and  _235
REMARK  104  A    between atoms: _234  and  _237
REMARK  105  A    between atoms: _237  and  _238
REMARK  106  A    between atoms: _238  and  _239
REMARK  107  A    between atoms: _239  and  _240
REMARK  108  A    between atoms: _240  and  _241
REMARK  109  A    between atoms: _245  and  _247
REMARK  110  A    between atoms: _247  and  _248
REMARK  111  A    between atoms: _247  and  _250
REMARK  112  A    between atoms: _250  and  _251
REMARK  113  A    between atoms: _254  and  _256
REMARK  114  A    between atoms: _256  and  _257
REMARK  115  A    between atoms: _256  and  _259
REMARK  116  A    between atoms: _259  and  _260
REMARK  117  A    between atoms: _260  and  _261
REMARK  118  A    between atoms: _263  and  _265
REMARK  119  A    between atoms: _265  and  _266
REMARK  120  A    between atoms: _265  and  _268
REMARK  121  A    between atoms: _271  and  _273
REMARK  122  A    between atoms: _273  and  _274
REMARK  123  A    between atoms: _273  and  _276
REMARK  124  A    between atoms: _276  and  _277
REMARK  125  A    between atoms: _277  and  _278
REMARK  126  A    between atoms: _280  and  _282
REMARK  127  A    between atoms: _282  and  _283
REMARK  128  A    between atoms: _282  and  _285
REMARK  129  A    between atoms: _285  and  _286
REMARK  130  A    between atoms: _286  and  _287
REMARK  131  A    between atoms: _290  and  _292
REMARK  132  A    between atoms: _292  and  _293
REMARK  133  A    between atoms: _292  and  _295
REMARK  134  A    between atoms: _295  and  _296
REMARK  135  A    between atoms: _301  and  _302
REMARK  136  A    between atoms: _304  and  _306
REMARK  137  A    between atoms: _306  and  _307
REMARK  138  A    between atoms: _306  and  _309
REMARK  139  A    between atoms: _312  and  _314
REMARK  140  A    between atoms: _314  and  _315
REMARK  141  A    between atoms: _318  and  _320
REMARK  142  A    between atoms: _320  and  _321
REMARK  143  A    between atoms: _323  and  _325
REMARK  144  A    between atoms: _325  and  _326
REMARK  145  A    between atoms: _328  and  _330
REMARK  146  A    between atoms: _330  and  _331
REMARK  147  A    between atoms: _330  and  _333
REMARK  148  A    between atoms: _333  and  _334
REMARK  149  A    between atoms: _334  and  _335
REMARK  150  A    between atoms: _338  and  _340
REMARK  151  A    between atoms: _340  and  _341
REMARK  152  A    between atoms: _340  and  _343
REMARK  153  A    between atoms: _343  and  _344
REMARK  154  A    between atoms: _344  and  _345
REMARK  155  A    between atoms: _347  and  _349
REMARK  156  A    between atoms: _349  and  _350
REMARK  157  A    between atoms: _349  and  _352
REMARK  158  A    between atoms: _352  and  _353
REMARK  159  A    between atoms: _359  and  _361
REMARK  160  A    between atoms: _361  and  _362
REMARK  161  A    between atoms: _361  and  _364
REMARK  162  A    between atoms: _364  and  _365
REMARK  163  A    between atoms: _370  and  _371
REMARK  164  A    between atoms: _373  and  _375
REMARK  165  A    between atoms: _375  and  _376
REMARK  166  A    between atoms: _375  and  _378
REMARK  167  A    between atoms: _378  and  _379
REMARK  168  A    between atoms: _382  and  _384
REMARK  169  A    between atoms: _384  and  _385
REMARK  170  A    between atoms: _384  and  _387
REMARK  171  A    between atoms: _387  and  _388
REMARK  172  A    between atoms: _388  and  _389
REMARK  173  A    between atoms: _389  and  _390
REMARK  174  A    between atoms: _390  and  _391
REMARK  175  A    between atoms: _396  and  _397
REMARK  176  A    between atoms: _402  and  _404
REMARK  177  A    between atoms: _404  and  _405
REMARK  178  A    between atoms: _404  and  _407
REMARK  179  A    between atoms: _407  and  _408
REMARK  180  A    between atoms: _408  and  _409
REMARK  181  A    between atoms: _412  and  _414
REMARK  182  A    between atoms: _414  and  _415
REMARK  183  A    between atoms: _414  and  _417
REMARK  184  A    between atoms: _417  and  _418
REMARK  185  A    between atoms: _423  and  _425
REMARK  186  A    between atoms: _425  and  _426
REMARK  187  A    between atoms: _425  and  _428
REMARK  188  A    between atoms: _428  and  _429
REMARK  189  A    between atoms: _432  and  _434
REMARK  190  A    between atoms: _434  and  _435
REMARK  191  A    between atoms: _434  and  _437
REMARK  192  A    between atoms: _437  and  _438
REMARK  193  A    between atoms: _441  and  _443
REMARK  194  A    between atoms: _443  and  _444
REMARK  195  A    between atoms: _443  and  _446
REMARK  196  A    between atoms: _446  and  _447
REMARK  197  A    between atoms: _450  and  _452
REMARK  198  A    between atoms: _452  and  _453
REMARK  199  A    between atoms: _452  and  _455
REMARK  200  A    between atoms: _455  and  _456
REMARK  201  A    between atoms: _459  and  _461
REMARK  202  A    between atoms: _461  and  _462
REMARK  203  A    between atoms: _461  and  _464
REMARK  204  A    between atoms: _464  and  _465
REMARK  205  A    between atoms: _465  and  _466
REMARK  206  A    between atoms: _471  and  _473
REMARK  207  A    between atoms: _473  and  _474
REMARK  208  A    between atoms: _473  and  _476
REMARK  209  A    between atoms: _479  and  _481
REMARK  210  A    between atoms: _481  and  _482
REMARK  211  A    between atoms: _481  and  _484
REMARK  212  A    between atoms: _484  and  _485
REMARK  213  A    between atoms: _488  and  _490
REMARK  214  A    between atoms: _490  and  _491
REMARK  215  A    between atoms: _490  and  _493
REMARK  216  A    between atoms: _493  and  _494
REMARK  217  A    between atoms: _497  and  _499
REMARK  218  A    between atoms: _499  and  _500
REMARK  219  A    between atoms: _499  and  _502
REMARK  220  A    between atoms: _502  and  _503
REMARK  221  A    between atoms: _509  and  _511
REMARK  222  A    between atoms: _511  and  _512
REMARK  223  A    between atoms: _514  and  _516
REMARK  224  A    between atoms: _516  and  _517
REMARK  225  A    between atoms: _516  and  _519
REMARK  226  A    between atoms: _519  and  _520
REMARK  227  A    between atoms: _523  and  _525
REMARK  228  A    between atoms: _525  and  _526
REMARK  229  A    between atoms: _525  and  _528
REMARK  230  A    between atoms: _528  and  _529
REMARK  231  A    between atoms: _534  and  _536
REMARK  232  A    between atoms: _536  and  _537
REMARK  233  A    between atoms: _536  and  _539
REMARK  234  A    between atoms: _539  and  _540
REMARK  235  A    between atoms: _546  and  _548
REMARK  236  A    between atoms: _548  and  _549
REMARK  237  A    between atoms: _548  and  _551
REMARK  238  A    between atoms: _551  and  _552
REMARK  239  A    between atoms: _555  and  _557
REMARK  240  A    between atoms: _557  and  _558
REMARK  241  A    between atoms: _557  and  _560
REMARK  242  A    between atoms: _560  and  _561
REMARK  243  A    between atoms: _566  and  _567
REMARK  244  A    between atoms: _569  and  _571
REMARK  245  A    between atoms: _571  and  _572
REMARK  246  A    between atoms: _571  and  _574
REMARK  247  A    between atoms: _574  and  _575
REMARK  248  A    between atoms: _575  and  _576
REMARK  249  A    between atoms: _576  and  _577
REMARK  250  A    between atoms: _586  and  _588
REMARK  251  A    between atoms: _588  and  _589
REMARK  252  A    between atoms: _588  and  _591
REMARK  253  A    between atoms: _591  and  _592
REMARK  254  A    between atoms: _592  and  _593
REMARK  255  A    between atoms: _593  and  _594
REMARK  256  A    between atoms: _603  and  _605
REMARK  257  A    between atoms: _605  and  _606
REMARK  258  A    between atoms: _605  and  _608
REMARK  259  A    between atoms: _608  and  _609
REMARK  260  A    between atoms: _614  and  _616
REMARK  261  A    between atoms: _616  and  _617
REMARK                            x       y       z     vdW  Elec       q    Type
REMARK                         _______ _______ _______ _____ _____    ______ ____
ROOT
ATOM      1  C   THR A   3       7.819   5.771  -2.211  0.00  0.00    +0.243 C 
ATOM      2  N   ASP A   4       8.320   6.958  -2.508  0.00  0.00    -0.296 N 
ATOM      3  H   ASP A   4       7.764   7.806  -2.276  0.00  0.00    +0.150 HD
ATOM      4  O   THR A   3       8.381   4.717  -2.510  0.00  0.00    -0.273 OA
ENDROOT
BRANCH   1   5
ATOM      5  CA  THR A   3       6.487   5.781  -1.452  0.00  0.00    +0.176 C 
BRANCH   5   7
ATOM      6  C   VAL A   2       5.213   3.690  -1.632  0.00  0.00    +0.241 C 
ATOM      7  N   THR A   3       6.215   4.378  -1.094  0.00  0.00    -0.295 N 
ATOM      8  H   THR A   3       6.828   3.910  -0.396  0.00  0.00    +0.150 HD
ATOM      9  O   VAL A   2       4.399   4.208  -2.374  0.00  0.00    -0.273 OA
BRANCH   6  10
ATOM     10  CA  VAL A   2       5.056   2.229  -1.212  0.00  0.00    +0.148 C 
BRANCH  10  13
ATOM     11  C   GLN A   1       3.378   2.433   0.561  0.00  0.00    +0.238 C 
ATOM     12  O   GLN A   1       4.173   2.898   1.349  0.00  0.00    -0.274 OA
ATOM     13  N   VAL A   2       3.726   2.023  -0.651  0.00  0.00    -0.297 N 
ATOM     14  H   VAL A   2       3.016   1.531  -1.230  0.00  0.00    +0.150 HD
BRANCH  11  15
ATOM     15  CA  GLN A   1       1.944   2.176   1.013  0.00  0.00    +0.145 C 
BRANCH  15  16
ATOM     16  N   GLN A   1       2.034   1.050   1.946  0.00  0.00    -0.238 NA
ATOM     17  H   GLN A   1       2.856   1.032   2.583  0.00  0.00    +0.142 HD
ENDBRANCH  15  16
BRANCH  15  18
ATOM     18  CB  GLN A   1       1.464   3.450   1.684  0.00  0.00    +0.036 C 
BRANCH  18  19
ATOM     19  CG  GLN A   1       0.066   3.386   2.148  0.00  0.00    +0.087 C 
BRANCH  19  20
ATOM     20  CD  GLN A   1      -0.905   3.267   1.009  0.00  0.00    +0.219 C 
ATOM     21  NE2 GLN A   1      -1.441   2.066   0.790  0.00  0.00    -0.329 N 
ATOM     22 HE21 GLN A   1      -1.157   1.255   1.376  0.00  0.00    +0.145 HD
ATOM     23 HE22 GLN A   1      -2.143   1.940   0.033  0.00  0.00    +0.145 HD
ATOM     24  OE1 GLN A   1      -1.202   4.251   0.351  0.00  0.00    -0.275 OA
ENDBRANCH  19  20
ENDBRANCH  18  19
ENDBRANCH  15  18
ENDBRANCH  11  15
ENDBRANCH  10  13
BRANCH  10  25
ATOM     25  CB  VAL A   2       5.218   1.343  -2.477  0.00  0.00    +0.027 C 
ATOM     26  CG2 VAL A   2       4.950  -0.089  -2.113  0.00  0.00    +0.002 C 
ATOM     27  CG1 VAL A   2       6.596   1.473  -3.079  0.00  0.00    +0.002 C 
ENDBRANCH  10  25
ENDBRANCH   6  10
ENDBRANCH   5   7
BRANCH   5  28
ATOM     28  CB  THR A   3       6.651   6.674  -0.187  0.00  0.00    +0.137 C 
ATOM     29  CG2 THR A   3       5.354   6.955   0.424  0.00  0.00    +0.034 C 
BRANCH  28  30
ATOM     30  OG1 THR A   3       7.452   6.005   0.805  0.00  0.00    -0.382 OA
ATOM     31  HG1 THR A   3       8.347   5.812   0.429  0.00  0.00    +0.210 HD
ENDBRANCH  28  30
ENDBRANCH   5  28
ENDBRANCH   1   5
BRANCH   2  32
ATOM     32  CA  ASP A   4       9.621   7.129  -3.148  0.00  0.00    +0.160 C 
BRANCH  32  33
ATOM     33  C   ASP A   4       9.846   6.413  -4.465  0.00  0.00    +0.241 C 
ATOM     34  O   ASP A   4      10.409   5.324  -4.484  0.00  0.00    -0.273 OA
ATOM     35  N   PHE A   5       9.480   7.063  -5.558  0.00  0.00    -0.297 N 
ATOM     36  H   PHE A   5       9.044   8.003  -5.469  0.00  0.00    +0.150 HD
BRANCH  35  37
ATOM     37  CA  PHE A   5       9.674   6.493  -6.880  0.00  0.00    +0.153 C 
BRANCH  37  38
ATOM     38  C   PHE A   5      10.779   7.313  -7.572  0.00  0.00    +0.241 C 
ATOM     39  N   GLY A   6      11.802   7.682  -6.804  0.00  0.00    -0.296 N 
ATOM     40  H   GLY A   6      11.809   7.391  -5.806  0.00  0.00    +0.150 HD
ATOM     41  O   PHE A   5      10.702   7.595  -8.772  0.00  0.00    -0.273 OA
BRANCH  39  42
ATOM     42  CA  GLY A   6      12.912   8.478  -7.310  0.00  0.00    +0.163 C 
BRANCH  42  43
ATOM     43  C   GLY A   6      13.843   7.735  -8.251  0.00  0.00    +0.229 C 
ATOM     44  O   GLY A   6      14.647   8.362  -8.935  0.00  0.00    -0.286 OA
ENDBRANCH  42  43
ENDBRANCH  39  42
ENDBRANCH  37  38
BRANCH  37  45
ATOM     45  CB  PHE A   5       8.365   6.564  -7.684  0.00  0.00    +0.055 C 
BRANCH  45  46
ATOM     46  CG  PHE A   5       7.422   5.420  -7.427  0.00  0.00    -0.020 A 
ATOM     47  CD2 PHE A   5       6.876   5.210  -6.167  0.00  0.00    -0.004 A 
ATOM     48  CE2 PHE A   5       6.017   4.161  -5.924  0.00  0.00    -0.000 A 
ATOM     49  CZ  PHE A   5       5.687   3.297  -6.936  0.00  0.00    -0.000 A 
ATOM     50  CE1 PHE A   5       6.218   3.491  -8.213  0.00  0.00    -0.000 A 
ATOM     51  CD1 PHE A   5       7.082   4.552  -8.448  0.00  0.00    -0.004 A 
ENDBRANCH  45  46
ENDBRANCH  37  45
ENDBRANCH  35  37
ENDBRANCH  32  33
BRANCH  32  52
ATOM     52  CB  ASP A   4      10.711   6.701  -2.170  0.00  0.00    +0.143 C 
BRANCH  52  53
ATOM     53  CG  ASP A   4      12.043   7.413  -2.406  0.00  0.00    +0.367 C 
ATOM     54  OD2 ASP A   4      13.002   6.978  -1.741  0.00  0.00    -0.246 OA
ATOM     55  OD1 ASP A   4      12.163   8.375  -3.218  0.00  0.00    -0.246 OA
ENDBRANCH  52  53
ENDBRANCH  32  52
ENDBRANCH   2  32
TORSDOF 22
REMARK  Name = ../refined-set-2016/1ydt/1ydt_pocket.pdb
REMARK  261 active torsions:
REMARK  status: ('A' for Active; 'I' for Inactive)
REMARK    1  A    between atoms: _1  and  _3
REMARK    2  A    between atoms: _3  and  _4
REMARK    3  A    between atoms: _3  and  _6
REMARK    4  A    between atoms: _6  and  _7
REMARK    5  A    between atoms: _7  and  _8
REMARK    6  A    between atoms: _8  and  _9
REMARK    7  A    between atoms: _9  and  _10
REMARK    8  A    between atoms: _14  and  _16
REMARK    9  A    between atoms: _16  and  _17
REMARK   10  A    between atoms: _16  and  _19
REMARK   11  A    between atoms: _19  and  _20
REMARK   12  A    between atoms: _23  and  _25
REMARK   13  A    between atoms: _25  and  _26
REMARK   14  A    between atoms: _25  and  _28
REMARK   15  A    between atoms: _28  and  _29
REMARK   16  A    between atoms: _32  and  _34
REMARK   17  A    between atoms: _34  and  _35
REMARK   18  A    between atoms: _37  and  _39
REMARK   19  A    between atoms: _39  and  _40
REMARK   20  A    between atoms: _39  and  _42
REMARK   21  A    between atoms: _42  and  _43
REMARK   22  A    between atoms: _46  and  _48
REMARK   23  A    between atoms: _48  and  _49
REMARK   24  A    between atoms: _51  and  _53
REMARK   25  A    between atoms: _53  and  _54
REMARK   26  A    between atoms: _53  and  _56
REMARK   27  A    between atoms: _56  and  _57
REMARK   28  A    between atoms: _59  and  _61
REMARK   29  A    between atoms: _61  and  _62
REMARK   30  A    between atoms: _61  and  _64
REMARK   31  A    between atoms: _64  and  _65
REMARK   32  A    between atoms: _71  and  _73
REMARK   33  A    between atoms: _73  and  _74
REMARK   34  A    between atoms: _76  and  _78
REMARK   35  A    between atoms: _78  and  _79
REMARK   36  A    between atoms: _78  and  _81
REMARK   37  A    between atoms: _81  and  _82
REMARK   38  A    between atoms: _82  and  _83
REMARK   39  A    between atoms: _83  and  _84
REMARK   40  A    between atoms: _93  and  _95
REMARK   41  A    between atoms: _95  and  _96
REMARK   42  A    between atoms: _95  and  _98
REMARK   43  A    between atoms: _101  and  _103
REMARK   44  A    between atoms: _103  and  _104
REMARK   45  A    between atoms: _103  and  _106
REMARK   46  A    between atoms: _106  and  _107
REMARK   47  A    between atoms: _107  and  _108
REMARK   48  A    between atoms: _110  and  _112
REMARK   49  A    between atoms: _112  and  _113
REMARK   50  A    between atoms: _112  and  _115
REMARK   51  A    between atoms: _115  and  _116
REMARK   52  A    between atoms: _119  and  _121
REMARK   53  A    between atoms: _121  and  _122
REMARK   54  A    between atoms: _121  and  _124
REMARK   55  A    between atoms: _124  and  _125
REMARK   56  A    between atoms: _130  and  _131
REMARK   57  A    between atoms: _133  and  _135
REMARK   58  A    between atoms: _135  and  _136
REMARK   59  A    between atoms: _139  and  _141
REMARK   60  A    between atoms: _141  and  _142
REMARK   61  A    between atoms: _141  and  _144
REMARK   62  A    between atoms: _144  and  _145
REMARK   63  A    between atoms: _145  and  _146
REMARK   64  A    between atoms: _148  and  _150
REMARK   65  A    between atoms: _150  and  _151
REMARK   66  A    between atoms: _150  and  _153
REMARK   67  A    between atoms: _153  and  _154
REMARK   68  A    between atoms: _154  and  _155
REMARK   69  A    between atoms: _155  and  _156
REMARK   70  A    between atoms: _156  and  _157
REMARK   71  A    between atoms: _161  and  _163
REMARK   72  A    between atoms: _163  and  _164
REMARK   73  A    between atoms: _163  and  _166
REMARK   74  A    between atoms: _166  and  _167
REMARK   75  A    between atoms: _170  and  _172
REMARK   76  A    between atoms: _172  and  _173
REMARK   77  A    between atoms: _172  and  _175
REMARK   78  A    between atoms: _175  and  _176
REMARK   79  A    between atoms: _179  and  _181
REMARK   80  A    between atoms: _181  and  _182
REMARK   81  A    between atoms: _181  and  _184
REMARK   82  A    between atoms: _184  and  _185
REMARK   83  A    between atoms: _188  and  _190
REMARK   84  A    between atoms: _190  and  _191
REMARK   85  A    between atoms: _190  and  _193
REMARK   86  A    between atoms: _196  and  _198
REMARK   87  A    between atoms: _198  and  _199
REMARK   88  A    between atoms: _198  and  _201
REMARK   89  A    between atoms: _201  and  _202
REMARK   90  A    between atoms: _205  and  _207
REMARK   91  A    between atoms: _207  and  _208
REMARK   92  A    between atoms: _207  and  _210
REMARK   93  A    between atoms: _210  and  _211
REMARK   94  A    between atoms: _211  and  _212
REMARK   95  A    between atoms: _215  and  _217
REMARK   96  A    between atoms: _217  and  _218
REMARK   97  A    between atoms: _217  and  _220
REMARK   98  A    between atoms: _220  and  _221
REMARK   99  A    between atoms: _224  and  _226
REMARK  100  A    between atoms: _226  and  _227
REMARK  101  A    between atoms: _226  and  _229
REMARK  102  A    between atoms: _232  and  _234
REMARK  103  A    between atoms: _234  and  _235
REMARK  104  A    between atoms: _234  and  _237
REMARK  105  A    between atoms: _237  and  _238
REMARK  106  A    between atoms: _238  and  _239
REMARK  107  A    between atoms: _239  and  _240
REMARK  108  A    between atoms: _240  and  _241
REMARK  109  A    between atoms: _245  and  _247
REMARK  110  A    between atoms: _247  and  _248
REMARK  111  A    between atoms: _247  and  _250
REMARK  112  A    between atoms: _250  and  _251
REMARK  113  A    between atoms: _254  and  _256
REMARK  114  A    between atoms: _256  and  _257
REMARK  115  A    between atoms: _256  and  _259
REMARK  116  A    between atoms: _259  and  _260
REMARK  117  A    between atoms: _260  and  _261
REMARK  118  A    between atoms: _263  and  _265
REMARK  119  A    between atoms: _265  and  _266
REMARK  120  A    between atoms: _265  and  _268
REMARK  121  A    between atoms: _271  and  _273
REMARK  122  A    between atoms: _273  and  _274
REMARK  123  A    between atoms: _273  and  _276
REMARK  124  A    between atoms: _276  and  _277
REMARK  125  A    between atoms: _277  and  _278
REMARK  126  A    between atoms: _280  and  _282
REMARK  127  A    between atoms: _282  and  _283
REMARK  128  A    between atoms: _282  and  _285
REMARK  129  A    between atoms: _285  and  _286
REMARK  130  A    between atoms: _286  and  _287
REMARK  131  A    between atoms: _290  and  _292
REMARK  132  A    between atoms: _292  and  _293
REMARK  133  A    between atoms: _292  and  _295
REMARK  134  A    between atoms: _295  and  _296
REMARK  135  A    between atoms: _301  and  _302
REMARK  136  A    between atoms: _304  and  _306
REMARK  137  A    between atoms: _306  and  _307
REMARK  138  A    between atoms: _306  and  _309
REMARK  139  A    between atoms: _312  and  _314
REMARK  140  A    between atoms: _314  and  _315
REMARK  141  A    between atoms: _318  and  _320
REMARK  142  A    between atoms: _320  and  _321
REMARK  143  A    between atoms: _323  and  _325
REMARK  144  A    between atoms: _325  and  _326
REMARK  145  A    between atoms: _328  and  _330
REMARK  146  A    between atoms: _330  and  _331
REMARK  147  A    between atoms: _330  and  _333
REMARK  148  A    between atoms: _333  and  _334
REMARK  149  A    between atoms: _334  and  _335
REMARK  150  A    between atoms: _338  and  _340
REMARK  151  A    between atoms: _340  and  _341
REMARK  152  A    between atoms: _340  and  _343
REMARK  153  A    between atoms: _343  and  _344
REMARK  154  A    between atoms: _344  and  _345
REMARK  155  A    between atoms: _347  and  _349
REMARK  156  A    between atoms: _349  and  _350
REMARK  157  A    between atoms: _349  and  _352
REMARK  158  A    between atoms: _352  and  _353
REMARK  159  A    between atoms: _359  and  _361
REMARK  160  A    between atoms: _361  and  _362
REMARK  161  A    between atoms: _361  and  _364
REMARK  162  A    between atoms: _364  and  _365
REMARK  163  A    between atoms: _370  and  _371
REMARK  164  A    between atoms: _373  and  _375
REMARK  165  A    between atoms: _375  and  _376
REMARK  166  A    between atoms: _375  and  _378
REMARK  167  A    between atoms: _378  and  _379
REMARK  168  A    between atoms: _382  and  _384
REMARK  169  A    between atoms: _384  and  _385
REMARK  170  A    between atoms: _384  and  _387
REMARK  171  A    between atoms: _387  and  _388
REMARK  172  A    between atoms: _388  and  _389
REMARK  173  A    between atoms: _389  and  _390
REMARK  174  A    between atoms: _390  and  _391
REMARK  175  A    between atoms: _396  and  _397
REMARK  176  A    between atoms: _402  and  _404
REMARK  177  A    between atoms: _404  and  _405
REMARK  178  A    between atoms: _404  and  _407
REMARK  179  A    between atoms: _407  and  _408
REMARK  180  A    between atoms: _408  and  _409
REMARK  181  A    between atoms: _412  and  _414
REMARK  182  A    between atoms: _414  and  _415
REMARK  183  A    between atoms: _414  and  _417
REMARK  184  A    between atoms: _417  and  _418
REMARK  185  A    between atoms: _423  and  _425
REMARK  186  A    between atoms: _425  and  _426
REMARK  187  A    between atoms: _425  and  _428
REMARK  188  A    between atoms: _428  and  _429
REMARK  189  A    between atoms: _432  and  _434
REMARK  190  A    between atoms: _434  and  _435
REMARK  191  A    between atoms: _434  and  _437
REMARK  192  A    between atoms: _437  and  _438
REMARK  193  A    between atoms: _441  and  _443
REMARK  194  A    between atoms: _443  and  _444
REMARK  195  A    between atoms: _443  and  _446
REMARK  196  A    between atoms: _446  and  _447
REMARK  197  A    between atoms: _450  and  _452
REMARK  198  A    between atoms: _452  and  _453
REMARK  199  A    between atoms: _452  and  _455
REMARK  200  A    between atoms: _455  and  _456
REMARK  201  A    between atoms: _459  and  _461
REMARK  202  A    between atoms: _461  and  _462
REMARK  203  A    between atoms: _461  and  _464
REMARK  204  A    between atoms: _464  and  _465
REMARK  205  A    between atoms: _465  and  _466
REMARK  206  A    between atoms: _471  and  _473
REMARK  207  A    between atoms: _473  and  _474
REMARK  208  A    between atoms: _473  and  _476
REMARK  209  A    between atoms: _479  and  _481
REMARK  210  A    between atoms: _481  and  _482
REMARK  211  A    between atoms: _481  and  _484
REMARK  212  A    between atoms: _484  and  _485
REMARK  213  A    between atoms: _488  and  _490
REMARK  214  A    between atoms: _490  and  _491
REMARK  215  A    between atoms: _490  and  _493
REMARK  216  A    between atoms: _493  and  _494
REMARK  217  A    between atoms: _497  and  _499
REMARK  218  A    between atoms: _499  and  _500
REMARK  219  A    between atoms: _499  and  _502
REMARK  220  A    between atoms: _502  and  _503
REMARK  221  A    between atoms: _509  and  _511
REMARK  222  A    between atoms: _511  and  _512
REMARK  223  A    between atoms: _514  and  _516
REMARK  224  A    between atoms: _516  and  _517
REMARK  225  A    between atoms: _516  and  _519
REMARK  226  A    between atoms: _519  and  _520
REMARK  227  A    between atoms: _523  and  _525
REMARK  228  A    between atoms: _525  and  _526
REMARK  229  A    between atoms: _525  and  _528
REMARK  230  A    between atoms: _528  and  _529
REMARK  231  A    between atoms: _534  and  _536
REMARK  232  A    between atoms: _536  and  _537
REMARK  233  A    between atoms: _536  and  _539
REMARK  234  A    between atoms: _539  and  _540
REMARK  235  A    between atoms: _546  and  _548
REMARK  236  A    between atoms: _548  and  _549
REMARK  237  A    between atoms: _548  and  _551
REMARK  238  A    between atoms: _551  and  _552
REMARK  239  A    between atoms: _555  and  _557
REMARK  240  A    between atoms: _557  and  _558
REMARK  241  A    between atoms: _557  and  _560
REMARK  242  A    between atoms: _560  and  _561
REMARK  243  A    between atoms: _566  and  _567
REMARK  244  A    between atoms: _569  and  _571
REMARK  245  A    between atoms: _571  and  _572
REMARK  246  A    between atoms: _571  and  _574
REMARK  247  A    between atoms: _574  and  _575
REMARK  248  A    between atoms: _575  and  _576
REMARK  249  A    between atoms: _576  and  _577
REMARK  250  A    between atoms: _586  and  _588
REMARK  251  A    between atoms: _588  and  _589
REMARK  252  A    between atoms: _588  and  _591
REMARK  253  A    between atoms: _591  and  _592
REMARK  254  A    between atoms: _592  and  _593
REMARK  255  A    between atoms: _593  and  _594
REMARK  256  A    between atoms: _603  and  _605
REMARK  257  A    between atoms: _605  and  _606
REMARK  258  A    between atoms: _605  and  _608
REMARK  259  A    between atoms: _608  and  _609
REMARK  260  A    between atoms: _614  and  _616
REMARK  261  A    between atoms: _616  and  _617
REMARK                            x       y       z     vdW  Elec       q    Type
REMARK                         _______ _______ _______ _____ _____    ______ ____
ROOT
ATOM      1  CA  THR A   1       2.783  12.645  13.500  0.00  0.00    +0.160 C 
ENDROOT
BRANCH   1   2
ATOM      2  N   THR A   1       1.514  13.055  14.050  0.00  0.00    -0.237 NA
ATOM      3  H   THR A   1       1.521  13.714  14.854  0.00  0.00    +0.142 HD
ENDBRANCH   1   2
BRANCH   1   4
ATOM      4  C   THR A   1       3.644  11.989  14.572  0.00  0.00    +0.227 C 
ATOM      5  O   THR A   1       4.831  12.299  14.670  0.00  0.00    -0.287 OA
ENDBRANCH   1   4
BRANCH   1   6
ATOM      6  CB  THR A   1       3.526  13.886  13.030  0.00  0.00    +0.134 C 
ATOM      7  CG2 THR A   1       2.885  14.461  11.814  0.00  0.00    +0.034 C 
BRANCH   6   8
ATOM      8  OG1 THR A   1       3.455  14.882  14.049  0.00  0.00    -0.383 OA
ATOM      9  HG1 THR A   1       3.872  14.535  14.877  0.00  0.00    +0.210 HD
ENDBRANCH   6   8
ENDBRANCH   1   6
TORSDOF 4
REMARK  Name = ../refined-set-2016/1ydt/1ydt_pocket.pdb
REMARK  261 active torsions:
REMARK  status: ('A' for Active; 'I' for Inactive)
REMARK    1  A    between atoms: _1  and  _3
REMARK    2  A    between atoms: _3  and  _4
REMARK    3  A    between atoms: _3  and  _6
REMARK    4  A    between atoms: _6  and  _7
REMARK    5  A    between atoms: _7  and  _8
REMARK    6  A    between atoms: _8  and  _9
REMARK    7  A    between atoms: _9  and  _10
REMARK    8  A    between atoms: _14  and  _16
REMARK    9  A    between atoms: _16  and  _17
REMARK   10  A    between atoms: _16  and  _19
REMARK   11  A    between atoms: _19  and  _20
REMARK   12  A    between atoms: _23  and  _25
REMARK   13  A    between atoms: _25  and  _26
REMARK   14  A    between atoms: _25  and  _28
REMARK   15  A    between atoms: _28  and  _29
REMARK   16  A    between atoms: _32  and  _34
REMARK   17  A    between atoms: _34  and  _35
REMARK   18  A    between atoms: _37  and  _39
REMARK   19  A    between atoms: _39  and  _40
REMARK   20  A    between atoms: _39  and  _42
REMARK   21  A    between atoms: _42  and  _43
REMARK   22  A    between atoms: _46  and  _48
REMARK   23  A    between atoms: _48  and  _49
REMARK   24  A    between atoms: _51  and  _53
REMARK   25  A    between atoms: _53  and  _54
REMARK   26  A    between atoms: _53  and  _56
REMARK   27  A    between atoms: _56  and  _57
REMARK   28  A    between atoms: _59  and  _61
REMARK   29  A    between atoms: _61  and  _62
REMARK   30  A    between atoms: _61  and  _64
REMARK   31  A    between atoms: _64  and  _65
REMARK   32  A    between atoms: _71  and  _73
REMARK   33  A    between atoms: _73  and  _74
REMARK   34  A    between atoms: _76  and  _78
REMARK   35  A    between atoms: _78  and  _79
REMARK   36  A    between atoms: _78  and  _81
REMARK   37  A    between atoms: _81  and  _82
REMARK   38  A    between atoms: _82  and  _83
REMARK   39  A    between atoms: _83  and  _84
REMARK   40  A    between atoms: _93  and  _95
REMARK   41  A    between atoms: _95  and  _96
REMARK   42  A    between atoms: _95  and  _98
REMARK   43  A    between atoms: _101  and  _103
REMARK   44  A    between atoms: _103  and  _104
REMARK   45  A    between atoms: _103  and  _106
REMARK   46  A    between atoms: _106  and  _107
REMARK   47  A    between atoms: _107  and  _108
REMARK   48  A    between atoms: _110  and  _112
REMARK   49  A    between atoms: _112  and  _113
REMARK   50  A    between atoms: _112  and  _115
REMARK   51  A    between atoms: _115  and  _116
REMARK   52  A    between atoms: _119  and  _121
REMARK   53  A    between atoms: _121  and  _122
REMARK   54  A    between atoms: _121  and  _124
REMARK   55  A    between atoms: _124  and  _125
REMARK   56  A    between atoms: _130  and  _131
REMARK   57  A    between atoms: _133  and  _135
REMARK   58  A    between atoms: _135  and  _136
REMARK   59  A    between atoms: _139  and  _141
REMARK   60  A    between atoms: _141  and  _142
REMARK   61  A    between atoms: _141  and  _144
REMARK   62  A    between atoms: _144  and  _145
REMARK   63  A    between atoms: _145  and  _146
REMARK   64  A    between atoms: _148  and  _150
REMARK   65  A    between atoms: _150  and  _151
REMARK   66  A    between atoms: _150  and  _153
REMARK   67  A    between atoms: _153  and  _154
REMARK   68  A    between atoms: _154  and  _155
REMARK   69  A    between atoms: _155  and  _156
REMARK   70  A    between atoms: _156  and  _157
REMARK   71  A    between atoms: _161  and  _163
REMARK   72  A    between atoms: _163  and  _164
REMARK   73  A    between atoms: _163  and  _166
REMARK   74  A    between atoms: _166  and  _167
REMARK   75  A    between atoms: _170  and  _172
REMARK   76  A    between atoms: _172  and  _173
REMARK   77  A    between atoms: _172  and  _175
REMARK   78  A    between atoms: _175  and  _176
REMARK   79  A    between atoms: _179  and  _181
REMARK   80  A    between atoms: _181  and  _182
REMARK   81  A    between atoms: _181  and  _184
REMARK   82  A    between atoms: _184  and  _185
REMARK   83  A    between atoms: _188  and  _190
REMARK   84  A    between atoms: _190  and  _191
REMARK   85  A    between atoms: _190  and  _193
REMARK   86  A    between atoms: _196  and  _198
REMARK   87  A    between atoms: _198  and  _199
REMARK   88  A    between atoms: _198  and  _201
REMARK   89  A    between atoms: _201  and  _202
REMARK   90  A    between atoms: _205  and  _207
REMARK   91  A    between atoms: _207  and  _208
REMARK   92  A    between atoms: _207  and  _210
REMARK   93  A    between atoms: _210  and  _211
REMARK   94  A    between atoms: _211  and  _212
REMARK   95  A    between atoms: _215  and  _217
REMARK   96  A    between atoms: _217  and  _218
REMARK   97  A    between atoms: _217  and  _220
REMARK   98  A    between atoms: _220  and  _221
REMARK   99  A    between atoms: _224  and  _226
REMARK  100  A    between atoms: _226  and  _227
REMARK  101  A    between atoms: _226  and  _229
REMARK  102  A    between atoms: _232  and  _234
REMARK  103  A    between atoms: _234  and  _235
REMARK  104  A    between atoms: _234  and  _237
REMARK  105  A    between atoms: _237  and  _238
REMARK  106  A    between atoms: _238  and  _239
REMARK  107  A    between atoms: _239  and  _240
REMARK  108  A    between atoms: _240  and  _241
REMARK  109  A    between atoms: _245  and  _247
REMARK  110  A    between atoms: _247  and  _248
REMARK  111  A    between atoms: _247  and  _250
REMARK  112  A    between atoms: _250  and  _251
REMARK  113  A    between atoms: _254  and  _256
REMARK  114  A    between atoms: _256  and  _257
REMARK  115  A    between atoms: _256  and  _259
REMARK  116  A    between atoms: _259  and  _260
REMARK  117  A    between atoms: _260  and  _261
REMARK  118  A    between atoms: _263  and  _265
REMARK  119  A    between atoms: _265  and  _266
REMARK  120  A    between atoms: _265  and  _268
REMARK  121  A    between atoms: _271  and  _273
REMARK  122  A    between atoms: _273  and  _274
REMARK  123  A    between atoms: _273  and  _276
REMARK  124  A    between atoms: _276  and  _277
REMARK  125  A    between atoms: _277  and  _278
REMARK  126  A    between atoms: _280  and  _282
REMARK  127  A    between atoms: _282  and  _283
REMARK  128  A    between atoms: _282  and  _285
REMARK  129  A    between atoms: _285  and  _286
REMARK  130  A    between atoms: _286  and  _287
REMARK  131  A    between atoms: _290  and  _292
REMARK  132  A    between atoms: _292  and  _293
REMARK  133  A    between atoms: _292  and  _295
REMARK  134  A    between atoms: _295  and  _296
REMARK  135  A    between atoms: _301  and  _302
REMARK  136  A    between atoms: _304  and  _306
REMARK  137  A    between atoms: _306  and  _307
REMARK  138  A    between atoms: _306  and  _309
REMARK  139  A    between atoms: _312  and  _314
REMARK  140  A    between atoms: _314  and  _315
REMARK  141  A    between atoms: _318  and  _320
REMARK  142  A    between atoms: _320  and  _321
REMARK  143  A    between atoms: _323  and  _325
REMARK  144  A    between atoms: _325  and  _326
REMARK  145  A    between atoms: _328  and  _330
REMARK  146  A    between atoms: _330  and  _331
REMARK  147  A    between atoms: _330  and  _333
REMARK  148  A    between atoms: _333  and  _334
REMARK  149  A    between atoms: _334  and  _335
REMARK  150  A    between atoms: _338  and  _340
REMARK  151  A    between atoms: _340  and  _341
REMARK  152  A    between atoms: _340  and  _343
REMARK  153  A    between atoms: _343  and  _344
REMARK  154  A    between atoms: _344  and  _345
REMARK  155  A    between atoms: _347  and  _349
REMARK  156  A    between atoms: _349  and  _350
REMARK  157  A    between atoms: _349  and  _352
REMARK  158  A    between atoms: _352  and  _353
REMARK  159  A    between atoms: _359  and  _361
REMARK  160  A    between atoms: _361  and  _362
REMARK  161  A    between atoms: _361  and  _364
REMARK  162  A    between atoms: _364  and  _365
REMARK  163  A    between atoms: _370  and  _371
REMARK  164  A    between atoms: _373  and  _375
REMARK  165  A    between atoms: _375  and  _376
REMARK  166  A    between atoms: _375  and  _378
REMARK  167  A    between atoms: _378  and  _379
REMARK  168  A    between atoms: _382  and  _384
REMARK  169  A    between atoms: _384  and  _385
REMARK  170  A    between atoms: _384  and  _387
REMARK  171  A    between atoms: _387  and  _388
REMARK  172  A    between atoms: _388  and  _389
REMARK  173  A    between atoms: _389  and  _390
REMARK  174  A    between atoms: _390  and  _391
REMARK  175  A    between atoms: _396  and  _397
REMARK  176  A    between atoms: _402  and  _404
REMARK  177  A    between atoms: _404  and  _405
REMARK  178  A    between atoms: _404  and  _407
REMARK  179  A    between atoms: _407  and  _408
REMARK  180  A    between atoms: _408  and  _409
REMARK  181  A    between atoms: _412  and  _414
REMARK  182  A    between atoms: _414  and  _415
REMARK  183  A    between atoms: _414  and  _417
REMARK  184  A    between atoms: _417  and  _418
REMARK  185  A    between atoms: _423  and  _425
REMARK  186  A    between atoms: _425  and  _426
REMARK  187  A    between atoms: _425  and  _428
REMARK  188  A    between atoms: _428  and  _429
REMARK  189  A    between atoms: _432  and  _434
REMARK  190  A    between atoms: _434  and  _435
REMARK  191  A    between atoms: _434  and  _437
REMARK  192  A    between atoms: _437  and  _438
REMARK  193  A    between atoms: _441  and  _443
REMARK  194  A    between atoms: _443  and  _444
REMARK  195  A    between atoms: _443  and  _446
REMARK  196  A    between atoms: _446  and  _447
REMARK  197  A    between atoms: _450  and  _452
REMARK  198  A    between atoms: _452  and  _453
REMARK  199  A    between atoms: _452  and  _455
REMARK  200  A    between atoms: _455  and  _456
REMARK  201  A    between atoms: _459  and  _461
REMARK  202  A    between atoms: _461  and  _462
REMARK  203  A    between atoms: _461  and  _464
REMARK  204  A    between atoms: _464  and  _465
REMARK  205  A    between atoms: _465  and  _466
REMARK  206  A    between atoms: _471  and  _473
REMARK  207  A    between atoms: _473  and  _474
REMARK  208  A    between atoms: _473  and  _476
REMARK  209  A    between atoms: _479  and  _481
REMARK  210  A    between atoms: _481  and  _482
REMARK  211  A    between atoms: _481  and  _484
REMARK  212  A    between atoms: _484  and  _485
REMARK  213  A    between atoms: _488  and  _490
REMARK  214  A    between atoms: _490  and  _491
REMARK  215  A    between atoms: _490  and  _493
REMARK  216  A    between atoms: _493  and  _494
REMARK  217  A    between atoms: _497  and  _499
REMARK  218  A    between atoms: _499  and  _500
REMARK  219  A    between atoms: _499  and  _502
REMARK  220  A    between atoms: _502  and  _503
REMARK  221  A    between atoms: _509  and  _511
REMARK  222  A    between atoms: _511  and  _512
REMARK  223  A    between atoms: _514  and  _516
REMARK  224  A    between atoms: _516  and  _517
REMARK  225  A    between atoms: _516  and  _519
REMARK  226  A    between atoms: _519  and  _520
REMARK  227  A    between atoms: _523  and  _525
REMARK  228  A    between atoms: _525  and  _526
REMARK  229  A    between atoms: _525  and  _528
REMARK  230  A    between atoms: _528  and  _529
REMARK  231  A    between atoms: _534  and  _536
REMARK  232  A    between atoms: _536  and  _537
REMARK  233  A    between atoms: _536  and  _539
REMARK  234  A    between atoms: _539  and  _540
REMARK  235  A    between atoms: _546  and  _548
REMARK  236  A    between atoms: _548  and  _549
REMARK  237  A    between atoms: _548  and  _551
REMARK  238  A    between atoms: _551  and  _552
REMARK  239  A    between atoms: _555  and  _557
REMARK  240  A    between atoms: _557  and  _558
REMARK  241  A    between atoms: _557  and  _560
REMARK  242  A    between atoms: _560  and  _561
REMARK  243  A    between atoms: _566  and  _567
REMARK  244  A    between atoms: _569  and  _571
REMARK  245  A    between atoms: _571  and  _572
REMARK  246  A    between atoms: _571  and  _574
REMARK  247  A    between atoms: _574  and  _575
REMARK  248  A    between atoms: _575  and  _576
REMARK  249  A    between atoms: _576  and  _577
REMARK  250  A    between atoms: _586  and  _588
REMARK  251  A    between atoms: _588  and  _589
REMARK  252  A    between atoms: _588  and  _591
REMARK  253  A    between atoms: _591  and  _592
REMARK  254  A    between atoms: _592  and  _593
REMARK  255  A    between atoms: _593  and  _594
REMARK  256  A    between atoms: _603  and  _605
REMARK  257  A    between atoms: _605  and  _606
REMARK  258  A    between atoms: _605  and  _608
REMARK  259  A    between atoms: _608  and  _609
REMARK  260  A    between atoms: _614  and  _616
REMARK  261  A    between atoms: _616  and  _617
REMARK                            x       y       z     vdW  Elec       q    Type
REMARK                         _______ _______ _______ _____ _____    ______ ____
ROOT
ATOM      1  CA  PHE A   2       7.693   9.628  12.679  0.00  0.00    +0.153 C 
ENDROOT
BRANCH   1   3
ATOM      2  C   ASN A   1       6.161   7.893  13.460  0.00  0.00    +0.239 C 
ATOM      3  N   PHE A   2       6.541   9.169  13.442  0.00  0.00    -0.297 N 
ATOM      4  H   PHE A   2       5.996   9.862  13.993  0.00  0.00    +0.150 HD
ATOM      5  O   ASN A   1       6.780   7.010  12.866  0.00  0.00    -0.274 OA
BRANCH   2   6
ATOM      6  CA  ASN A   1       4.920   7.552  14.297  0.00  0.00    +0.154 C 
BRANCH   6   7
ATOM      7  N   ASN A   1       4.282   8.780  14.787  0.00  0.00    -0.238 NA
ATOM      8  H   ASN A   1       3.663   9.330  14.158  0.00  0.00    +0.142 HD
ENDBRANCH   6   7
BRANCH   6   9
ATOM      9  CB  ASN A   1       3.955   6.699  13.480  0.00  0.00    +0.111 C 
BRANCH   9  10
ATOM     10  CG  ASN A   1       2.737   6.274  14.272  0.00  0.00    +0.221 C 
ATOM     11  OD1 ASN A   1       2.592   5.111  14.646  0.00  0.00    -0.275 OA
ATOM     12  ND2 ASN A   1       1.834   7.219  14.512  0.00  0.00    -0.329 N 
ATOM     13 HD21 ASN A   1       0.965   6.987  15.034  0.00  0.00    +0.145 HD
ATOM     14 HD22 ASN A   1       1.996   8.190  14.178  0.00  0.00    +0.145 HD
ENDBRANCH   9  10
ENDBRANCH   6   9
ENDBRANCH   2   6
ENDBRANCH   1   3
BRANCH   1  15
ATOM     15  C   PHE A   2       8.708  10.271  13.593  0.00  0.00    +0.241 C 
ATOM     16  O   PHE A   2       8.322  10.899  14.579  0.00  0.00    -0.273 OA
ATOM     17  N   ASP A   3       9.990  10.133  13.272  0.00  0.00    -0.298 N 
ATOM     18  H   ASP A   3      10.233   9.592  12.418  0.00  0.00    +0.150 HD
BRANCH  17  19
ATOM     19  CA  ASP A   3      11.075  10.708  14.067  0.00  0.00    +0.148 C 
BRANCH  19  20
ATOM     20  C   ASP A   3      11.126  12.205  13.873  0.00  0.00    +0.227 C 
ATOM     21  O   ASP A   3      10.550  12.713  12.923  0.00  0.00    -0.286 OA
ENDBRANCH  19  20
BRANCH  19  22
ATOM     22  CB  ASP A   3      12.413  10.097  13.663  0.00  0.00    +0.142 C 
BRANCH  22  23
ATOM     23  CG  ASP A   3      12.509   8.617  14.007  0.00  0.00    +0.367 C 
ATOM     24  OD2 ASP A   3      11.755   8.140  14.889  0.00  0.00    -0.246 OA
ATOM     25  OD1 ASP A   3      13.339   7.919  13.389  0.00  0.00    -0.246 OA
ENDBRANCH  22  23
ENDBRANCH  19  22
ENDBRANCH  17  19
ENDBRANCH   1  15
BRANCH   1  26
ATOM     26  CB  PHE A   2       7.220  10.665  11.680  0.00  0.00    +0.055 C 
BRANCH  26  27
ATOM     27  CG  PHE A   2       6.259  10.123  10.669  0.00  0.00    -0.020 A 
ATOM     28  CD2 PHE A   2       4.883  10.257  10.860  0.00  0.00    -0.004 A 
ATOM     29  CE2 PHE A   2       3.979   9.759   9.922  0.00  0.00    -0.000 A 
ATOM     30  CZ  PHE A   2       4.460   9.126   8.785  0.00  0.00    -0.000 A 
ATOM     31  CE1 PHE A   2       5.850   8.988   8.591  0.00  0.00    -0.000 A 
ATOM     32  CD1 PHE A   2       6.725   9.483   9.526  0.00  0.00    -0.004 A 
ENDBRANCH  26  27
ENDBRANCH   1  26
TORSDOF 12
REMARK  Name = ../refined-set-2016/1ydt/1ydt_pocket.pdb
REMARK  261 active torsions:
REMARK  status: ('A' for Active; 'I' for Inactive)
REMARK    1  A    between atoms: _1  and  _3
REMARK    2  A    between atoms: _3  and  _4
REMARK    3  A    between atoms: _3  and  _6
REMARK    4  A    between atoms: _6  and  _7
REMARK    5  A    between atoms: _7  and  _8
REMARK    6  A    between atoms: _8  and  _9
REMARK    7  A    between atoms: _9  and  _10
REMARK    8  A    between atoms: _14  and  _16
REMARK    9  A    between atoms: _16  and  _17
REMARK   10  A    between atoms: _16  and  _19
REMARK   11  A    between atoms: _19  and  _20
REMARK   12  A    between atoms: _23  and  _25
REMARK   13  A    between atoms: _25  and  _26
REMARK   14  A    between atoms: _25  and  _28
REMARK   15  A    between atoms: _28  and  _29
REMARK   16  A    between atoms: _32  and  _34
REMARK   17  A    between atoms: _34  and  _35
REMARK   18  A    between atoms: _37  and  _39
REMARK   19  A    between atoms: _39  and  _40
REMARK   20  A    between atoms: _39  and  _42
REMARK   21  A    between atoms: _42  and  _43
REMARK   22  A    between atoms: _46  and  _48
REMARK   23  A    between atoms: _48  and  _49
REMARK   24  A    between atoms: _51  and  _53
REMARK   25  A    between atoms: _53  and  _54
REMARK   26  A    between atoms: _53  and  _56
REMARK   27  A    between atoms: _56  and  _57
REMARK   28  A    between atoms: _59  and  _61
REMARK   29  A    between atoms: _61  and  _62
REMARK   30  A    between atoms: _61  and  _64
REMARK   31  A    between atoms: _64  and  _65
REMARK   32  A    between atoms: _71  and  _73
REMARK   33  A    between atoms: _73  and  _74
REMARK   34  A    between atoms: _76  and  _78
REMARK   35  A    between atoms: _78  and  _79
REMARK   36  A    between atoms: _78  and  _81
REMARK   37  A    between atoms: _81  and  _82
REMARK   38  A    between atoms: _82  and  _83
REMARK   39  A    between atoms: _83  and  _84
REMARK   40  A    between atoms: _93  and  _95
REMARK   41  A    between atoms: _95  and  _96
REMARK   42  A    between atoms: _95  and  _98
REMARK   43  A    between atoms: _101  and  _103
REMARK   44  A    between atoms: _103  and  _104
REMARK   45  A    between atoms: _103  and  _106
REMARK   46  A    between atoms: _106  and  _107
REMARK   47  A    between atoms: _107  and  _108
REMARK   48  A    between atoms: _110  and  _112
REMARK   49  A    between atoms: _112  and  _113
REMARK   50  A    between atoms: _112  and  _115
REMARK   51  A    between atoms: _115  and  _116
REMARK   52  A    between atoms: _119  and  _121
REMARK   53  A    between atoms: _121  and  _122
REMARK   54  A    between atoms: _121  and  _124
REMARK   55  A    between atoms: _124  and  _125
REMARK   56  A    between atoms: _130  and  _131
REMARK   57  A    between atoms: _133  and  _135
REMARK   58  A    between atoms: _135  and  _136
REMARK   59  A    between atoms: _139  and  _141
REMARK   60  A    between atoms: _141  and  _142
REMARK   61  A    between atoms: _141  and  _144
REMARK   62  A    between atoms: _144  and  _145
REMARK   63  A    between atoms: _145  and  _146
REMARK   64  A    between atoms: _148  and  _150
REMARK   65  A    between atoms: _150  and  _151
REMARK   66  A    between atoms: _150  and  _153
REMARK   67  A    between atoms: _153  and  _154
REMARK   68  A    between atoms: _154  and  _155
REMARK   69  A    between atoms: _155  and  _156
REMARK   70  A    between atoms: _156  and  _157
REMARK   71  A    between atoms: _161  and  _163
REMARK   72  A    between atoms: _163  and  _164
REMARK   73  A    between atoms: _163  and  _166
REMARK   74  A    between atoms: _166  and  _167
REMARK   75  A    between atoms: _170  and  _172
REMARK   76  A    between atoms: _172  and  _173
REMARK   77  A    between atoms: _172  and  _175
REMARK   78  A    between atoms: _175  and  _176
REMARK   79  A    between atoms: _179  and  _181
REMARK   80  A    between atoms: _181  and  _182
REMARK   81  A    between atoms: _181  and  _184
REMARK   82  A    between atoms: _184  and  _185
REMARK   83  A    between atoms: _188  and  _190
REMARK   84  A    between atoms: _190  and  _191
REMARK   85  A    between atoms: _190  and  _193
REMARK   86  A    between atoms: _196  and  _198
REMARK   87  A    between atoms: _198  and  _199
REMARK   88  A    between atoms: _198  and  _201
REMARK   89  A    between atoms: _201  and  _202
REMARK   90  A    between atoms: _205  and  _207
REMARK   91  A    between atoms: _207  and  _208
REMARK   92  A    between atoms: _207  and  _210
REMARK   93  A    between atoms: _210  and  _211
REMARK   94  A    between atoms: _211  and  _212
REMARK   95  A    between atoms: _215  and  _217
REMARK   96  A    between atoms: _217  and  _218
REMARK   97  A    between atoms: _217  and  _220
REMARK   98  A    between atoms: _220  and  _221
REMARK   99  A    between atoms: _224  and  _226
REMARK  100  A    between atoms: _226  and  _227
REMARK  101  A    between atoms: _226  and  _229
REMARK  102  A    between atoms: _232  and  _234
REMARK  103  A    between atoms: _234  and  _235
REMARK  104  A    between atoms: _234  and  _237
REMARK  105  A    between atoms: _237  and  _238
REMARK  106  A    between atoms: _238  and  _239
REMARK  107  A    between atoms: _239  and  _240
REMARK  108  A    between atoms: _240  and  _241
REMARK  109  A    between atoms: _245  and  _247
REMARK  110  A    between atoms: _247  and  _248
REMARK  111  A    between atoms: _247  and  _250
REMARK  112  A    between atoms: _250  and  _251
REMARK  113  A    between atoms: _254  and  _256
REMARK  114  A    between atoms: _256  and  _257
REMARK  115  A    between atoms: _256  and  _259
REMARK  116  A    between atoms: _259  and  _260
REMARK  117  A    between atoms: _260  and  _261
REMARK  118  A    between atoms: _263  and  _265
REMARK  119  A    between atoms: _265  and  _266
REMARK  120  A    between atoms: _265  and  _268
REMARK  121  A    between atoms: _271  and  _273
REMARK  122  A    between atoms: _273  and  _274
REMARK  123  A    between atoms: _273  and  _276
REMARK  124  A    between atoms: _276  and  _277
REMARK  125  A    between atoms: _277  and  _278
REMARK  126  A    between atoms: _280  and  _282
REMARK  127  A    between atoms: _282  and  _283
REMARK  128  A    between atoms: _282  and  _285
REMARK  129  A    between atoms: _285  and  _286
REMARK  130  A    between atoms: _286  and  _287
REMARK  131  A    between atoms: _290  and  _292
REMARK  132  A    between atoms: _292  and  _293
REMARK  133  A    between atoms: _292  and  _295
REMARK  134  A    between atoms: _295  and  _296
REMARK  135  A    between atoms: _301  and  _302
REMARK  136  A    between atoms: _304  and  _306
REMARK  137  A    between atoms: _306  and  _307
REMARK  138  A    between atoms: _306  and  _309
REMARK  139  A    between atoms: _312  and  _314
REMARK  140  A    between atoms: _314  and  _315
REMARK  141  A    between atoms: _318  and  _320
REMARK  142  A    between atoms: _320  and  _321
REMARK  143  A    between atoms: _323  and  _325
REMARK  144  A    between atoms: _325  and  _326
REMARK  145  A    between atoms: _328  and  _330
REMARK  146  A    between atoms: _330  and  _331
REMARK  147  A    between atoms: _330  and  _333
REMARK  148  A    between atoms: _333  and  _334
REMARK  149  A    between atoms: _334  and  _335
REMARK  150  A    between atoms: _338  and  _340
REMARK  151  A    between atoms: _340  and  _341
REMARK  152  A    between atoms: _340  and  _343
REMARK  153  A    between atoms: _343  and  _344
REMARK  154  A    between atoms: _344  and  _345
REMARK  155  A    between atoms: _347  and  _349
REMARK  156  A    between atoms: _349  and  _350
REMARK  157  A    between atoms: _349  and  _352
REMARK  158  A    between atoms: _352  and  _353
REMARK  159  A    between atoms: _359  and  _361
REMARK  160  A    between atoms: _361  and  _362
REMARK  161  A    between atoms: _361  and  _364
REMARK  162  A    between atoms: _364  and  _365
REMARK  163  A    between atoms: _370  and  _371
REMARK  164  A    between atoms: _373  and  _375
REMARK  165  A    between atoms: _375  and  _376
REMARK  166  A    between atoms: _375  and  _378
REMARK  167  A    between atoms: _378  and  _379
REMARK  168  A    between atoms: _382  and  _384
REMARK  169  A    between atoms: _384  and  _385
REMARK  170  A    between atoms: _384  and  _387
REMARK  171  A    between atoms: _387  and  _388
REMARK  172  A    between atoms: _388  and  _389
REMARK  173  A    between atoms: _389  and  _390
REMARK  174  A    between atoms: _390  and  _391
REMARK  175  A    between atoms: _396  and  _397
REMARK  176  A    between atoms: _402  and  _404
REMARK  177  A    between atoms: _404  and  _405
REMARK  178  A    between atoms: _404  and  _407
REMARK  179  A    between atoms: _407  and  _408
REMARK  180  A    between atoms: _408  and  _409
REMARK  181  A    between atoms: _412  and  _414
REMARK  182  A    between atoms: _414  and  _415
REMARK  183  A    between atoms: _414  and  _417
REMARK  184  A    between atoms: _417  and  _418
REMARK  185  A    between atoms: _423  and  _425
REMARK  186  A    between atoms: _425  and  _426
REMARK  187  A    between atoms: _425  and  _428
REMARK  188  A    between atoms: _428  and  _429
REMARK  189  A    between atoms: _432  and  _434
REMARK  190  A    between atoms: _434  and  _435
REMARK  191  A    between atoms: _434  and  _437
REMARK  192  A    between atoms: _437  and  _438
REMARK  193  A    between atoms: _441  and  _443
REMARK  194  A    between atoms: _443  and  _444
REMARK  195  A    between atoms: _443  and  _446
REMARK  196  A    between atoms: _446  and  _447
REMARK  197  A    between atoms: _450  and  _452
REMARK  198  A    between atoms: _452  and  _453
REMARK  199  A    between atoms: _452  and  _455
REMARK  200  A    between atoms: _455  and  _456
REMARK  201  A    between atoms: _459  and  _461
REMARK  202  A    between atoms: _461  and  _462
REMARK  203  A    between atoms: _461  and  _464
REMARK  204  A    between atoms: _464  and  _465
REMARK  205  A    between atoms: _465  and  _466
REMARK  206  A    between atoms: _471  and  _473
REMARK  207  A    between atoms: _473  and  _474
REMARK  208  A    between atoms: _473  and  _476
REMARK  209  A    between atoms: _479  and  _481
REMARK  210  A    between atoms: _481  and  _482
REMARK  211  A    between atoms: _481  and  _484
REMARK  212  A    between atoms: _484  and  _485
REMARK  213  A    between atoms: _488  and  _490
REMARK  214  A    between atoms: _490  and  _491
REMARK  215  A    between atoms: _490  and  _493
REMARK  216  A    between atoms: _493  and  _494
REMARK  217  A    between atoms: _497  and  _499
REMARK  218  A    between atoms: _499  and  _500
REMARK  219  A    between atoms: _499  and  _502
REMARK  220  A    between atoms: _502  and  _503
REMARK  221  A    between atoms: _509  and  _511
REMARK  222  A    between atoms: _511  and  _512
REMARK  223  A    between atoms: _514  and  _516
REMARK  224  A    between atoms: _516  and  _517
REMARK  225  A    between atoms: _516  and  _519
REMARK  226  A    between atoms: _519  and  _520
REMARK  227  A    between atoms: _523  and  _525
REMARK  228  A    between atoms: _525  and  _526
REMARK  229  A    between atoms: _525  and  _528
REMARK  230  A    between atoms: _528  and  _529
REMARK  231  A    between atoms: _534  and  _536
REMARK  232  A    between atoms: _536  and  _537
REMARK  233  A    between atoms: _536  and  _539
REMARK  234  A    between atoms: _539  and  _540
REMARK  235  A    between atoms: _546  and  _548
REMARK  236  A    between atoms: _548  and  _549
REMARK  237  A    between atoms: _548  and  _551
REMARK  238  A    between atoms: _551  and  _552
REMARK  239  A    between atoms: _555  and  _557
REMARK  240  A    between atoms: _557  and  _558
REMARK  241  A    between atoms: _557  and  _560
REMARK  242  A    between atoms: _560  and  _561
REMARK  243  A    between atoms: _566  and  _567
REMARK  244  A    between atoms: _569  and  _571
REMARK  245  A    between atoms: _571  and  _572
REMARK  246  A    between atoms: _571  and  _574
REMARK  247  A    between atoms: _574  and  _575
REMARK  248  A    between atoms: _575  and  _576
REMARK  249  A    between atoms: _576  and  _577
REMARK  250  A    between atoms: _586  and  _588
REMARK  251  A    between atoms: _588  and  _589
REMARK  252  A    between atoms: _588  and  _591
REMARK  253  A    between atoms: _591  and  _592
REMARK  254  A    between atoms: _592  and  _593
REMARK  255  A    between atoms: _593  and  _594
REMARK  256  A    between atoms: _603  and  _605
REMARK  257  A    between atoms: _605  and  _606
REMARK  258  A    between atoms: _605  and  _608
REMARK  259  A    between atoms: _608  and  _609
REMARK  260  A    between atoms: _614  and  _616
REMARK  261  A    between atoms: _616  and  _617
REMARK                            x       y       z     vdW  Elec       q    Type
REMARK                         _______ _______ _______ _____ _____    ______ ____
ROOT
ATOM      1  CG  TYR A   1      13.482  14.610  10.327  0.00  0.00    -0.020 A 
ATOM      2  CD2 TYR A   1      12.307  13.891  10.291  0.00  0.00    -0.001 A 
ATOM      3  CE2 TYR A   1      12.313  12.541   9.989  0.00  0.00    +0.036 A 
ATOM      4  CZ  TYR A   1      13.508  11.905   9.733  0.00  0.00    +0.134 A 
ATOM      5  CE1 TYR A   1      14.672  12.609   9.765  0.00  0.00    +0.036 A 
ATOM      6  CD1 TYR A   1      14.658  13.947  10.051  0.00  0.00    -0.001 A 
ENDROOT
BRANCH   4   7
ATOM      7  OH  TYR A   1      13.555  10.540   9.475  0.00  0.00    -0.506 OA
ATOM      8  HH  TYR A   1      13.011  10.338   8.673  0.00  0.00    +0.292 HD
ENDBRANCH   4   7
BRANCH   1   9
ATOM      9  CB  TYR A   1      13.496  16.064  10.708  0.00  0.00    +0.051 C 
BRANCH   9  10
ATOM     10  CA  TYR A   1      13.923  16.334  12.165  0.00  0.00    +0.137 C 
BRANCH  10  11
ATOM     11  N   TYR A   1      12.910  15.822  13.064  0.00  0.00    -0.239 NA
ATOM     12  H   TYR A   1      12.009  16.337  13.135  0.00  0.00    +0.142 HD
ENDBRANCH  10  11
BRANCH  10  13
ATOM     13  C   TYR A   1      14.025  17.843  12.401  0.00  0.00    +0.224 C 
ATOM     14  O   TYR A   1      13.026  18.469  12.755  0.00  0.00    -0.287 OA
ENDBRANCH  10  13
ENDBRANCH   9  10
ENDBRANCH   1   9
TORSDOF 5
REMARK  Name = ../refined-set-2016/1ydt/1ydt_pocket.pdb
REMARK  261 active torsions:
REMARK  status: ('A' for Active; 'I' for Inactive)
REMARK    1  A    between atoms: _1  and  _3
REMARK    2  A    between atoms: _3  and  _4
REMARK    3  A    between atoms: _3  and  _6
REMARK    4  A    between atoms: _6  and  _7
REMARK    5  A    between atoms: _7  and  _8
REMARK    6  A    between atoms: _8  and  _9
REMARK    7  A    between atoms: _9  and  _10
REMARK    8  A    between atoms: _14  and  _16
REMARK    9  A    between atoms: _16  and  _17
REMARK   10  A    between atoms: _16  and  _19
REMARK   11  A    between atoms: _19  and  _20
REMARK   12  A    between atoms: _23  and  _25
REMARK   13  A    between atoms: _25  and  _26
REMARK   14  A    between atoms: _25  and  _28
REMARK   15  A    between atoms: _28  and  _29
REMARK   16  A    between atoms: _32  and  _34
REMARK   17  A    between atoms: _34  and  _35
REMARK   18  A    between atoms: _37  and  _39
REMARK   19  A    between atoms: _39  and  _40
REMARK   20  A    between atoms: _39  and  _42
REMARK   21  A    between atoms: _42  and  _43
REMARK   22  A    between atoms: _46  and  _48
REMARK   23  A    between atoms: _48  and  _49
REMARK   24  A    between atoms: _51  and  _53
REMARK   25  A    between atoms: _53  and  _54
REMARK   26  A    between atoms: _53  and  _56
REMARK   27  A    between atoms: _56  and  _57
REMARK   28  A    between atoms: _59  and  _61
REMARK   29  A    between atoms: _61  and  _62
REMARK   30  A    between atoms: _61  and  _64
REMARK   31  A    between atoms: _64  and  _65
REMARK   32  A    between atoms: _71  and  _73
REMARK   33  A    between atoms: _73  and  _74
REMARK   34  A    between atoms: _76  and  _78
REMARK   35  A    between atoms: _78  and  _79
REMARK   36  A    between atoms: _78  and  _81
REMARK   37  A    between atoms: _81  and  _82
REMARK   38  A    between atoms: _82  and  _83
REMARK   39  A    between atoms: _83  and  _84
REMARK   40  A    between atoms: _93  and  _95
REMARK   41  A    between atoms: _95  and  _96
REMARK   42  A    between atoms: _95  and  _98
REMARK   43  A    between atoms: _101  and  _103
REMARK   44  A    between atoms: _103  and  _104
REMARK   45  A    between atoms: _103  and  _106
REMARK   46  A    between atoms: _106  and  _107
REMARK   47  A    between atoms: _107  and  _108
REMARK   48  A    between atoms: _110  and  _112
REMARK   49  A    between atoms: _112  and  _113
REMARK   50  A    between atoms: _112  and  _115
REMARK   51  A    between atoms: _115  and  _116
REMARK   52  A    between atoms: _119  and  _121
REMARK   53  A    between atoms: _121  and  _122
REMARK   54  A    between atoms: _121  and  _124
REMARK   55  A    between atoms: _124  and  _125
REMARK   56  A    between atoms: _130  and  _131
REMARK   57  A    between atoms: _133  and  _135
REMARK   58  A    between atoms: _135  and  _136
REMARK   59  A    between atoms: _139  and  _141
REMARK   60  A    between atoms: _141  and  _142
REMARK   61  A    between atoms: _141  and  _144
REMARK   62  A    between atoms: _144  and  _145
REMARK   63  A    between atoms: _145  and  _146
REMARK   64  A    between atoms: _148  and  _150
REMARK   65  A    between atoms: _150  and  _151
REMARK   66  A    between atoms: _150  and  _153
REMARK   67  A    between atoms: _153  and  _154
REMARK   68  A    between atoms: _154  and  _155
REMARK   69  A    between atoms: _155  and  _156
REMARK   70  A    between atoms: _156  and  _157
REMARK   71  A    between atoms: _161  and  _163
REMARK   72  A    between atoms: _163  and  _164
REMARK   73  A    between atoms: _163  and  _166
REMARK   74  A    between atoms: _166  and  _167
REMARK   75  A    between atoms: _170  and  _172
REMARK   76  A    between atoms: _172  and  _173
REMARK   77  A    between atoms: _172  and  _175
REMARK   78  A    between atoms: _175  and  _176
REMARK   79  A    between atoms: _179  and  _181
REMARK   80  A    between atoms: _181  and  _182
REMARK   81  A    between atoms: _181  and  _184
REMARK   82  A    between atoms: _184  and  _185
REMARK   83  A    between atoms: _188  and  _190
REMARK   84  A    between atoms: _190  and  _191
REMARK   85  A    between atoms: _190  and  _193
REMARK   86  A    between atoms: _196  and  _198
REMARK   87  A    between atoms: _198  and  _199
REMARK   88  A    between atoms: _198  and  _201
REMARK   89  A    between atoms: _201  and  _202
REMARK   90  A    between atoms: _205  and  _207
REMARK   91  A    between atoms: _207  and  _208
REMARK   92  A    between atoms: _207  and  _210
REMARK   93  A    between atoms: _210  and  _211
REMARK   94  A    between atoms: _211  and  _212
REMARK   95  A    between atoms: _215  and  _217
REMARK   96  A    between atoms: _217  and  _218
REMARK   97  A    between atoms: _217  and  _220
REMARK   98  A    between atoms: _220  and  _221
REMARK   99  A    between atoms: _224  and  _226
REMARK  100  A    between atoms: _226  and  _227
REMARK  101  A    between atoms: _226  and  _229
REMARK  102  A    between atoms: _232  and  _234
REMARK  103  A    between atoms: _234  and  _235
REMARK  104  A    between atoms: _234  and  _237
REMARK  105  A    between atoms: _237  and  _238
REMARK  106  A    between atoms: _238  and  _239
REMARK  107  A    between atoms: _239  and  _240
REMARK  108  A    between atoms: _240  and  _241
REMARK  109  A    between atoms: _245  and  _247
REMARK  110  A    between atoms: _247  and  _248
REMARK  111  A    between atoms: _247  and  _250
REMARK  112  A    between atoms: _250  and  _251
REMARK  113  A    between atoms: _254  and  _256
REMARK  114  A    between atoms: _256  and  _257
REMARK  115  A    between atoms: _256  and  _259
REMARK  116  A    between atoms: _259  and  _260
REMARK  117  A    between atoms: _260  and  _261
REMARK  118  A    between atoms: _263  and  _265
REMARK  119  A    between atoms: _265  and  _266
REMARK  120  A    between atoms: _265  and  _268
REMARK  121  A    between atoms: _271  and  _273
REMARK  122  A    between atoms: _273  and  _274
REMARK  123  A    between atoms: _273  and  _276
REMARK  124  A    between atoms: _276  and  _277
REMARK  125  A    between atoms: _277  and  _278
REMARK  126  A    between atoms: _280  and  _282
REMARK  127  A    between atoms: _282  and  _283
REMARK  128  A    between atoms: _282  and  _285
REMARK  129  A    between atoms: _285  and  _286
REMARK  130  A    between atoms: _286  and  _287
REMARK  131  A    between atoms: _290  and  _292
REMARK  132  A    between atoms: _292  and  _293
REMARK  133  A    between atoms: _292  and  _295
REMARK  134  A    between atoms: _295  and  _296
REMARK  135  A    between atoms: _301  and  _302
REMARK  136  A    between atoms: _304  and  _306
REMARK  137  A    between atoms: _306  and  _307
REMARK  138  A    between atoms: _306  and  _309
REMARK  139  A    between atoms: _312  and  _314
REMARK  140  A    between atoms: _314  and  _315
REMARK  141  A    between atoms: _318  and  _320
REMARK  142  A    between atoms: _320  and  _321
REMARK  143  A    between atoms: _323  and  _325
REMARK  144  A    between atoms: _325  and  _326
REMARK  145  A    between atoms: _328  and  _330
REMARK  146  A    between atoms: _330  and  _331
REMARK  147  A    between atoms: _330  and  _333
REMARK  148  A    between atoms: _333  and  _334
REMARK  149  A    between atoms: _334  and  _335
REMARK  150  A    between atoms: _338  and  _340
REMARK  151  A    between atoms: _340  and  _341
REMARK  152  A    between atoms: _340  and  _343
REMARK  153  A    between atoms: _343  and  _344
REMARK  154  A    between atoms: _344  and  _345
REMARK  155  A    between atoms: _347  and  _349
REMARK  156  A    between atoms: _349  and  _350
REMARK  157  A    between atoms: _349  and  _352
REMARK  158  A    between atoms: _352  and  _353
REMARK  159  A    between atoms: _359  and  _361
REMARK  160  A    between atoms: _361  and  _362
REMARK  161  A    between atoms: _361  and  _364
REMARK  162  A    between atoms: _364  and  _365
REMARK  163  A    between atoms: _370  and  _371
REMARK  164  A    between atoms: _373  and  _375
REMARK  165  A    between atoms: _375  and  _376
REMARK  166  A    between atoms: _375  and  _378
REMARK  167  A    between atoms: _378  and  _379
REMARK  168  A    between atoms: _382  and  _384
REMARK  169  A    between atoms: _384  and  _385
REMARK  170  A    between atoms: _384  and  _387
REMARK  171  A    between atoms: _387  and  _388
REMARK  172  A    between atoms: _388  and  _389
REMARK  173  A    between atoms: _389  and  _390
REMARK  174  A    between atoms: _390  and  _391
REMARK  175  A    between atoms: _396  and  _397
REMARK  176  A    between atoms: _402  and  _404
REMARK  177  A    between atoms: _404  and  _405
REMARK  178  A    between atoms: _404  and  _407
REMARK  179  A    between atoms: _407  and  _408
REMARK  180  A    between atoms: _408  and  _409
REMARK  181  A    between atoms: _412  and  _414
REMARK  182  A    between atoms: _414  and  _415
REMARK  183  A    between atoms: _414  and  _417
REMARK  184  A    between atoms: _417  and  _418
REMARK  185  A    between atoms: _423  and  _425
REMARK  186  A    between atoms: _425  and  _426
REMARK  187  A    between atoms: _425  and  _428
REMARK  188  A    between atoms: _428  and  _429
REMARK  189  A    between atoms: _432  and  _434
REMARK  190  A    between atoms: _434  and  _435
REMARK  191  A    between atoms: _434  and  _437
REMARK  192  A    between atoms: _437  and  _438
REMARK  193  A    between atoms: _441  and  _443
REMARK  194  A    between atoms: _443  and  _444
REMARK  195  A    between atoms: _443  and  _446
REMARK  196  A    between atoms: _446  and  _447
REMARK  197  A    between atoms: _450  and  _452
REMARK  198  A    between atoms: _452  and  _453
REMARK  199  A    between atoms: _452  and  _455
REMARK  200  A    between atoms: _455  and  _456
REMARK  201  A    between atoms: _459  and  _461
REMARK  202  A    between atoms: _461  and  _462
REMARK  203  A    between atoms: _461  and  _464
REMARK  204  A    between atoms: _464  and  _465
REMARK  205  A    between atoms: _465  and  _466
REMARK  206  A    between atoms: _471  and  _473
REMARK  207  A    between atoms: _473  and  _474
REMARK  208  A    between atoms: _473  and  _476
REMARK  209  A    between atoms: _479  and  _481
REMARK  210  A    between atoms: _481  and  _482
REMARK  211  A    between atoms: _481  and  _484
REMARK  212  A    between atoms: _484  and  _485
REMARK  213  A    between atoms: _488  and  _490
REMARK  214  A    between atoms: _490  and  _491
REMARK  215  A    between atoms: _490  and  _493
REMARK  216  A    between atoms: _493  and  _494
REMARK  217  A    between atoms: _497  and  _499
REMARK  218  A    between atoms: _499  and  _500
REMARK  219  A    between atoms: _499  and  _502
REMARK  220  A    between atoms: _502  and  _503
REMARK  221  A    between atoms: _509  and  _511
REMARK  222  A    between atoms: _511  and  _512
REMARK  223  A    between atoms: _514  and  _516
REMARK  224  A    between atoms: _516  and  _517
REMARK  225  A    between atoms: _516  and  _519
REMARK  226  A    between atoms: _519  and  _520
REMARK  227  A    between atoms: _523  and  _525
REMARK  228  A    between atoms: _525  and  _526
REMARK  229  A    between atoms: _525  and  _528
REMARK  230  A    between atoms: _528  and  _529
REMARK  231  A    between atoms: _534  and  _536
REMARK  232  A    between atoms: _536  and  _537
REMARK  233  A    between atoms: _536  and  _539
REMARK  234  A    between atoms: _539  and  _540
REMARK  235  A    between atoms: _546  and  _548
REMARK  236  A    between atoms: _548  and  _549
REMARK  237  A    between atoms: _548  and  _551
REMARK  238  A    between atoms: _551  and  _552
REMARK  239  A    between atoms: _555  and  _557
REMARK  240  A    between atoms: _557  and  _558
REMARK  241  A    between atoms: _557  and  _560
REMARK  242  A    between atoms: _560  and  _561
REMARK  243  A    between atoms: _566  and  _567
REMARK  244  A    between atoms: _569  and  _571
REMARK  245  A    between atoms: _571  and  _572
REMARK  246  A    between atoms: _571  and  _574
REMARK  247  A    between atoms: _574  and  _575
REMARK  248  A    between atoms: _575  and  _576
REMARK  249  A    between atoms: _576  and  _577
REMARK  250  A    between atoms: _586  and  _588
REMARK  251  A    between atoms: _588  and  _589
REMARK  252  A    between atoms: _588  and  _591
REMARK  253  A    between atoms: _591  and  _592
REMARK  254  A    between atoms: _592  and  _593
REMARK  255  A    between atoms: _593  and  _594
REMARK  256  A    between atoms: _603  and  _605
REMARK  257  A    between atoms: _605  and  _606
REMARK  258  A    between atoms: _605  and  _608
REMARK  259  A    between atoms: _608  and  _609
REMARK  260  A    between atoms: _614  and  _616
REMARK  261  A    between atoms: _616  and  _617
REMARK                            x       y       z     vdW  Elec       q    Type
REMARK                         _______ _______ _______ _____ _____    ______ ____
ROOT
ATOM      1  CA  ARG A   2      19.933   3.765   5.068  0.00  0.00    +0.149 C 
ENDROOT
BRANCH   1   4
ATOM      2  C   ARG A   1      18.985   4.858   7.037  0.00  0.00    +0.238 C 
ATOM      3  O   ARG A   1      19.799   5.779   7.023  0.00  0.00    -0.274 OA
ATOM      4  N   ARG A   2      18.964   3.887   6.136  0.00  0.00    -0.297 N 
ATOM      5  H   ARG A   2      18.210   3.173   6.200  0.00  0.00    +0.150 HD
BRANCH   2   6
ATOM      6  CA  ARG A   1      17.904   4.782   8.091  0.00  0.00    +0.145 C 
BRANCH   6   7
ATOM      7  N   ARG A   1      18.464   4.598   9.429  0.00  0.00    -0.238 NA
ATOM      8  H   ARG A   1      18.323   5.354  10.129  0.00  0.00    +0.142 HD
ENDBRANCH   6   7
BRANCH   6   9
ATOM      9  CB  ARG A   1      17.036   6.034   8.024  0.00  0.00    +0.030 C 
BRANCH   9  10
ATOM     10  CG  ARG A   1      15.600   5.828   8.483  0.00  0.00    +0.045 C 
BRANCH  10  11
ATOM     11  CD  ARG A   1      14.776   7.080   8.265  0.00  0.00    +0.174 C 
BRANCH  11  12
ATOM     12  NE  ARG A   1      13.431   6.941   8.815  0.00  0.00    -0.265 N 
ATOM     13  CZ  ARG A   1      13.166   6.798  10.109  0.00  0.00    +0.342 C 
ATOM     14  NH2 ARG A   1      14.155   6.801  10.989  0.00  0.00    -0.292 N 
ATOM     15 HH21 ARG A   1      13.950   6.689  12.002  0.00  0.00    +0.255 HD
ATOM     16 HH22 ARG A   1      15.137   6.915  10.667  0.00  0.00    +0.255 HD
ATOM     17  NH1 ARG A   1      11.925   6.554  10.520  0.00  0.00    -0.292 N 
ATOM     18 HH11 ARG A   1      11.726   6.443  11.535  0.00  0.00    +0.255 HD
ATOM     19 HH12 ARG A   1      11.154   6.474   9.827  0.00  0.00    +0.255 HD
ATOM     20  HE  ARG A   1      12.630   6.955   8.152  0.00  0.00    +0.259 HD
ENDBRANCH  11  12
ENDBRANCH  10  11
ENDBRANCH   9  10
ENDBRANCH   6   9
ENDBRANCH   2   6
ENDBRANCH   1   4
BRANCH   1  21
ATOM     21  C   ARG A   2      19.659   4.693   3.897  0.00  0.00    +0.241 C 
ATOM     22  N   ASN A   3      20.693   5.407   3.466  0.00  0.00    -0.297 N 
ATOM     23  H   ASN A   3      21.618   5.282   3.926  0.00  0.00    +0.150 HD
ATOM     24  O   ARG A   2      18.538   4.780   3.412  0.00  0.00    -0.273 OA
BRANCH  22  25
ATOM     25  CA  ASN A   3      20.574   6.353   2.377  0.00  0.00    +0.158 C 
BRANCH  25  26
ATOM     26  C   ASN A   3      20.793   5.664   1.045  0.00  0.00    +0.241 C 
ATOM     27  O   ASN A   3      21.394   4.582   0.985  0.00  0.00    -0.273 OA
ATOM     28  N   ALA A   4      20.264   6.288  -0.009  0.00  0.00    -0.298 N 
ATOM     29  H   ALA A   4      19.770   7.189   0.150  0.00  0.00    +0.150 HD
BRANCH  28  30
ATOM     30  CA  ALA A   4      20.342   5.774  -1.372  0.00  0.00    +0.137 C 
ATOM     31  CB  ALA A   4      19.142   6.262  -2.189  0.00  0.00    +0.030 C 
BRANCH  30  32
ATOM     32  C   ALA A   4      21.625   6.208  -2.032  0.00  0.00    +0.227 C 
ATOM     33  O   ALA A   4      22.093   7.324  -1.821  0.00  0.00    -0.286 OA
ENDBRANCH  30  32
ENDBRANCH  28  30
ENDBRANCH  25  26
BRANCH  25  34
ATOM     34  CB  ASN A   3      21.554   7.499   2.571  0.00  0.00    +0.114 C 
BRANCH  34  35
ATOM     35  CG  ASN A   3      21.102   8.480   3.646  0.00  0.00    +0.222 C 
ATOM     36  ND2 ASN A   3      20.425   7.983   4.682  0.00  0.00    -0.329 N 
ATOM     37 HD21 ASN A   3      20.097   8.615   5.440  0.00  0.00    +0.145 HD
ATOM     38 HD22 ASN A   3      20.225   6.964   4.732  0.00  0.00    +0.145 HD
ATOM     39  OD1 ASN A   3      21.362   9.676   3.544  0.00  0.00    -0.275 OA
ENDBRANCH  34  35
ENDBRANCH  25  34
ENDBRANCH  22  25
ENDBRANCH   1  21
BRANCH   1  40
ATOM     40  CB  ARG A   2      19.952   2.322   4.632  0.00  0.00    +0.033 C 
BRANCH  40  41
ATOM     41  CG  ARG A   2      20.395   1.427   5.745  0.00  0.00    +0.045 C 
BRANCH  41  42
ATOM     42  CD  ARG A   2      19.916   0.026   5.560  0.00  0.00    +0.174 C 
BRANCH  42  43
ATOM     43  NE  ARG A   2      18.462  -0.086   5.630  0.00  0.00    -0.265 N 
ATOM     44  CZ  ARG A   2      17.825  -1.232   5.866  0.00  0.00    +0.342 C 
ATOM     45  NH2 ARG A   2      18.516  -2.356   6.060  0.00  0.00    -0.292 N 
ATOM     46 HH21 ARG A   2      18.016  -3.249   6.244  0.00  0.00    +0.255 HD
ATOM     47 HH22 ARG A   2      19.555  -2.340   6.027  0.00  0.00    +0.255 HD
ATOM     48  NH1 ARG A   2      16.497  -1.265   5.898  0.00  0.00    -0.292 N 
ATOM     49 HH11 ARG A   2      16.003  -2.162   6.083  0.00  0.00    +0.255 HD
ATOM     50 HH12 ARG A   2      15.951  -0.394   5.738  0.00  0.00    +0.255 HD
ATOM     51  HE  ARG A   2      17.894   0.774   5.488  0.00  0.00    +0.259 HD
ENDBRANCH  42  43
ENDBRANCH  41  42
ENDBRANCH  40  41
ENDBRANCH   1  40
TORSDOF 18
REMARK  Name = ../refined-set-2016/1ydt/1ydt_pocket.pdb
REMARK  261 active torsions:
REMARK  status: ('A' for Active; 'I' for Inactive)
REMARK    1  A    between atoms: _1  and  _3
REMARK    2  A    between atoms: _3  and  _4
REMARK    3  A    between atoms: _3  and  _6
REMARK    4  A    between atoms: _6  and  _7
REMARK    5  A    between atoms: _7  and  _8
REMARK    6  A    between atoms: _8  and  _9
REMARK    7  A    between atoms: _9  and  _10
REMARK    8  A    between atoms: _14  and  _16
REMARK    9  A    between atoms: _16  and  _17
REMARK   10  A    between atoms: _16  and  _19
REMARK   11  A    between atoms: _19  and  _20
REMARK   12  A    between atoms: _23  and  _25
REMARK   13  A    between atoms: _25  and  _26
REMARK   14  A    between atoms: _25  and  _28
REMARK   15  A    between atoms: _28  and  _29
REMARK   16  A    between atoms: _32  and  _34
REMARK   17  A    between atoms: _34  and  _35
REMARK   18  A    between atoms: _37  and  _39
REMARK   19  A    between atoms: _39  and  _40
REMARK   20  A    between atoms: _39  and  _42
REMARK   21  A    between atoms: _42  and  _43
REMARK   22  A    between atoms: _46  and  _48
REMARK   23  A    between atoms: _48  and  _49
REMARK   24  A    between atoms: _51  and  _53
REMARK   25  A    between atoms: _53  and  _54
REMARK   26  A    between atoms: _53  and  _56
REMARK   27  A    between atoms: _56  and  _57
REMARK   28  A    between atoms: _59  and  _61
REMARK   29  A    between atoms: _61  and  _62
REMARK   30  A    between atoms: _61  and  _64
REMARK   31  A    between atoms: _64  and  _65
REMARK   32  A    between atoms: _71  and  _73
REMARK   33  A    between atoms: _73  and  _74
REMARK   34  A    between atoms: _76  and  _78
REMARK   35  A    between atoms: _78  and  _79
REMARK   36  A    between atoms: _78  and  _81
REMARK   37  A    between atoms: _81  and  _82
REMARK   38  A    between atoms: _82  and  _83
REMARK   39  A    between atoms: _83  and  _84
REMARK   40  A    between atoms: _93  and  _95
REMARK   41  A    between atoms: _95  and  _96
REMARK   42  A    between atoms: _95  and  _98
REMARK   43  A    between atoms: _101  and  _103
REMARK   44  A    between atoms: _103  and  _104
REMARK   45  A    between atoms: _103  and  _106
REMARK   46  A    between atoms: _106  and  _107
REMARK   47  A    between atoms: _107  and  _108
REMARK   48  A    between atoms: _110  and  _112
REMARK   49  A    between atoms: _112  and  _113
REMARK   50  A    between atoms: _112  and  _115
REMARK   51  A    between atoms: _115  and  _116
REMARK   52  A    between atoms: _119  and  _121
REMARK   53  A    between atoms: _121  and  _122
REMARK   54  A    between atoms: _121  and  _124
REMARK   55  A    between atoms: _124  and  _125
REMARK   56  A    between atoms: _130  and  _131
REMARK   57  A    between atoms: _133  and  _135
REMARK   58  A    between atoms: _135  and  _136
REMARK   59  A    between atoms: _139  and  _141
REMARK   60  A    between atoms: _141  and  _142
REMARK   61  A    between atoms: _141  and  _144
REMARK   62  A    between atoms: _144  and  _145
REMARK   63  A    between atoms: _145  and  _146
REMARK   64  A    between atoms: _148  and  _150
REMARK   65  A    between atoms: _150  and  _151
REMARK   66  A    between atoms: _150  and  _153
REMARK   67  A    between atoms: _153  and  _154
REMARK   68  A    between atoms: _154  and  _155
REMARK   69  A    between atoms: _155  and  _156
REMARK   70  A    between atoms: _156  and  _157
REMARK   71  A    between atoms: _161  and  _163
REMARK   72  A    between atoms: _163  and  _164
REMARK   73  A    between atoms: _163  and  _166
REMARK   74  A    between atoms: _166  and  _167
REMARK   75  A    between atoms: _170  and  _172
REMARK   76  A    between atoms: _172  and  _173
REMARK   77  A    between atoms: _172  and  _175
REMARK   78  A    between atoms: _175  and  _176
REMARK   79  A    between atoms: _179  and  _181
REMARK   80  A    between atoms: _181  and  _182
REMARK   81  A    between atoms: _181  and  _184
REMARK   82  A    between atoms: _184  and  _185
REMARK   83  A    between atoms: _188  and  _190
REMARK   84  A    between atoms: _190  and  _191
REMARK   85  A    between atoms: _190  and  _193
REMARK   86  A    between atoms: _196  and  _198
REMARK   87  A    between atoms: _198  and  _199
REMARK   88  A    between atoms: _198  and  _201
REMARK   89  A    between atoms: _201  and  _202
REMARK   90  A    between atoms: _205  and  _207
REMARK   91  A    between atoms: _207  and  _208
REMARK   92  A    between atoms: _207  and  _210
REMARK   93  A    between atoms: _210  and  _211
REMARK   94  A    between atoms: _211  and  _212
REMARK   95  A    between atoms: _215  and  _217
REMARK   96  A    between atoms: _217  and  _218
REMARK   97  A    between atoms: _217  and  _220
REMARK   98  A    between atoms: _220  and  _221
REMARK   99  A    between atoms: _224  and  _226
REMARK  100  A    between atoms: _226  and  _227
REMARK  101  A    between atoms: _226  and  _229
REMARK  102  A    between atoms: _232  and  _234
REMARK  103  A    between atoms: _234  and  _235
REMARK  104  A    between atoms: _234  and  _237
REMARK  105  A    between atoms: _237  and  _238
REMARK  106  A    between atoms: _238  and  _239
REMARK  107  A    between atoms: _239  and  _240
REMARK  108  A    between atoms: _240  and  _241
REMARK  109  A    between atoms: _245  and  _247
REMARK  110  A    between atoms: _247  and  _248
REMARK  111  A    between atoms: _247  and  _250
REMARK  112  A    between atoms: _250  and  _251
REMARK  113  A    between atoms: _254  and  _256
REMARK  114  A    between atoms: _256  and  _257
REMARK  115  A    between atoms: _256  and  _259
REMARK  116  A    between atoms: _259  and  _260
REMARK  117  A    between atoms: _260  and  _261
REMARK  118  A    between atoms: _263  and  _265
REMARK  119  A    between atoms: _265  and  _266
REMARK  120  A    between atoms: _265  and  _268
REMARK  121  A    between atoms: _271  and  _273
REMARK  122  A    between atoms: _273  and  _274
REMARK  123  A    between atoms: _273  and  _276
REMARK  124  A    between atoms: _276  and  _277
REMARK  125  A    between atoms: _277  and  _278
REMARK  126  A    between atoms: _280  and  _282
REMARK  127  A    between atoms: _282  and  _283
REMARK  128  A    between atoms: _282  and  _285
REMARK  129  A    between atoms: _285  and  _286
REMARK  130  A    between atoms: _286  and  _287
REMARK  131  A    between atoms: _290  and  _292
REMARK  132  A    between atoms: _292  and  _293
REMARK  133  A    between atoms: _292  and  _295
REMARK  134  A    between atoms: _295  and  _296
REMARK  135  A    between atoms: _301  and  _302
REMARK  136  A    between atoms: _304  and  _306
REMARK  137  A    between atoms: _306  and  _307
REMARK  138  A    between atoms: _306  and  _309
REMARK  139  A    between atoms: _312  and  _314
REMARK  140  A    between atoms: _314  and  _315
REMARK  141  A    between atoms: _318  and  _320
REMARK  142  A    between atoms: _320  and  _321
REMARK  143  A    between atoms: _323  and  _325
REMARK  144  A    between atoms: _325  and  _326
REMARK  145  A    between atoms: _328  and  _330
REMARK  146  A    between atoms: _330  and  _331
REMARK  147  A    between atoms: _330  and  _333
REMARK  148  A    between atoms: _333  and  _334
REMARK  149  A    between atoms: _334  and  _335
REMARK  150  A    between atoms: _338  and  _340
REMARK  151  A    between atoms: _340  and  _341
REMARK  152  A    between atoms: _340  and  _343
REMARK  153  A    between atoms: _343  and  _344
REMARK  154  A    between atoms: _344  and  _345
REMARK  155  A    between atoms: _347  and  _349
REMARK  156  A    between atoms: _349  and  _350
REMARK  157  A    between atoms: _349  and  _352
REMARK  158  A    between atoms: _352  and  _353
REMARK  159  A    between atoms: _359  and  _361
REMARK  160  A    between atoms: _361  and  _362
REMARK  161  A    between atoms: _361  and  _364
REMARK  162  A    between atoms: _364  and  _365
REMARK  163  A    between atoms: _370  and  _371
REMARK  164  A    between atoms: _373  and  _375
REMARK  165  A    between atoms: _375  and  _376
REMARK  166  A    between atoms: _375  and  _378
REMARK  167  A    between atoms: _378  and  _379
REMARK  168  A    between atoms: _382  and  _384
REMARK  169  A    between atoms: _384  and  _385
REMARK  170  A    between atoms: _384  and  _387
REMARK  171  A    between atoms: _387  and  _388
REMARK  172  A    between atoms: _388  and  _389
REMARK  173  A    between atoms: _389  and  _390
REMARK  174  A    between atoms: _390  and  _391
REMARK  175  A    between atoms: _396  and  _397
REMARK  176  A    between atoms: _402  and  _404
REMARK  177  A    between atoms: _404  and  _405
REMARK  178  A    between atoms: _404  and  _407
REMARK  179  A    between atoms: _407  and  _408
REMARK  180  A    between atoms: _408  and  _409
REMARK  181  A    between atoms: _412  and  _414
REMARK  182  A    between atoms: _414  and  _415
REMARK  183  A    between atoms: _414  and  _417
REMARK  184  A    between atoms: _417  and  _418
REMARK  185  A    between atoms: _423  and  _425
REMARK  186  A    between atoms: _425  and  _426
REMARK  187  A    between atoms: _425  and  _428
REMARK  188  A    between atoms: _428  and  _429
REMARK  189  A    between atoms: _432  and  _434
REMARK  190  A    between atoms: _434  and  _435
REMARK  191  A    between atoms: _434  and  _437
REMARK  192  A    between atoms: _437  and  _438
REMARK  193  A    between atoms: _441  and  _443
REMARK  194  A    between atoms: _443  and  _444
REMARK  195  A    between atoms: _443  and  _446
REMARK  196  A    between atoms: _446  and  _447
REMARK  197  A    between atoms: _450  and  _452
REMARK  198  A    between atoms: _452  and  _453
REMARK  199  A    between atoms: _452  and  _455
REMARK  200  A    between atoms: _455  and  _456
REMARK  201  A    between atoms: _459  and  _461
REMARK  202  A    between atoms: _461  and  _462
REMARK  203  A    between atoms: _461  and  _464
REMARK  204  A    between atoms: _464  and  _465
REMARK  205  A    between atoms: _465  and  _466
REMARK  206  A    between atoms: _471  and  _473
REMARK  207  A    between atoms: _473  and  _474
REMARK  208  A    between atoms: _473  and  _476
REMARK  209  A    between atoms: _479  and  _481
REMARK  210  A    between atoms: _481  and  _482
REMARK  211  A    between atoms: _481  and  _484
REMARK  212  A    between atoms: _484  and  _485
REMARK  213  A    between atoms: _488  and  _490
REMARK  214  A    between atoms: _490  and  _491
REMARK  215  A    between atoms: _490  and  _493
REMARK  216  A    between atoms: _493  and  _494
REMARK  217  A    between atoms: _497  and  _499
REMARK  218  A    between atoms: _499  and  _500
REMARK  219  A    between atoms: _499  and  _502
REMARK  220  A    between atoms: _502  and  _503
REMARK  221  A    between atoms: _509  and  _511
REMARK  222  A    between atoms: _511  and  _512
REMARK  223  A    between atoms: _514  and  _516
REMARK  224  A    between atoms: _516  and  _517
REMARK  225  A    between atoms: _516  and  _519
REMARK  226  A    between atoms: _519  and  _520
REMARK  227  A    between atoms: _523  and  _525
REMARK  228  A    between atoms: _525  and  _526
REMARK  229  A    between atoms: _525  and  _528
REMARK  230  A    between atoms: _528  and  _529
REMARK  231  A    between atoms: _534  and  _536
REMARK  232  A    between atoms: _536  and  _537
REMARK  233  A    between atoms: _536  and  _539
REMARK  234  A    between atoms: _539  and  _540
REMARK  235  A    between atoms: _546  and  _548
REMARK  236  A    between atoms: _548  and  _549
REMARK  237  A    between atoms: _548  and  _551
REMARK  238  A    between atoms: _551  and  _552
REMARK  239  A    between atoms: _555  and  _557
REMARK  240  A    between atoms: _557  and  _558
REMARK  241  A    between atoms: _557  and  _560
REMARK  242  A    between atoms: _560  and  _561
REMARK  243  A    between atoms: _566  and  _567
REMARK  244  A    between atoms: _569  and  _571
REMARK  245  A    between atoms: _571  and  _572
REMARK  246  A    between atoms: _571  and  _574
REMARK  247  A    between atoms: _574  and  _575
REMARK  248  A    between atoms: _575  and  _576
REMARK  249  A    between atoms: _576  and  _577
REMARK  250  A    between atoms: _586  and  _588
REMARK  251  A    between atoms: _588  and  _589
REMARK  252  A    between atoms: _588  and  _591
REMARK  253  A    between atoms: _591  and  _592
REMARK  254  A    between atoms: _592  and  _593
REMARK  255  A    between atoms: _593  and  _594
REMARK  256  A    between atoms: _603  and  _605
REMARK  257  A    between atoms: _605  and  _606
REMARK  258  A    between atoms: _605  and  _608
REMARK  259  A    between atoms: _608  and  _609
REMARK  260  A    between atoms: _614  and  _616
REMARK  261  A    between atoms: _616  and  _617
REMARK                            x       y       z     vdW  Elec       q    Type
REMARK                         _______ _______ _______ _____ _____    ______ ____
ROOT
ATOM      1  O   HOH     1      13.680  10.951  -4.451  0.00  0.00    +0.000 OA
ENDROOT
TORSDOF 0
REMARK  Name = ../refined-set-2016/1ydt/1ydt_pocket.pdb
REMARK  261 active torsions:
REMARK  status: ('A' for Active; 'I' for Inactive)
REMARK    1  A    between atoms: _1  and  _3
REMARK    2  A    between atoms: _3  and  _4
REMARK    3  A    between atoms: _3  and  _6
REMARK    4  A    between atoms: _6  and  _7
REMARK    5  A    between atoms: _7  and  _8
REMARK    6  A    between atoms: _8  and  _9
REMARK    7  A    between atoms: _9  and  _10
REMARK    8  A    between atoms: _14  and  _16
REMARK    9  A    between atoms: _16  and  _17
REMARK   10  A    between atoms: _16  and  _19
REMARK   11  A    between atoms: _19  and  _20
REMARK   12  A    between atoms: _23  and  _25
REMARK   13  A    between atoms: _25  and  _26
REMARK   14  A    between atoms: _25  and  _28
REMARK   15  A    between atoms: _28  and  _29
REMARK   16  A    between atoms: _32  and  _34
REMARK   17  A    between atoms: _34  and  _35
REMARK   18  A    between atoms: _37  and  _39
REMARK   19  A    between atoms: _39  and  _40
REMARK   20  A    between atoms: _39  and  _42
REMARK   21  A    between atoms: _42  and  _43
REMARK   22  A    between atoms: _46  and  _48
REMARK   23  A    between atoms: _48  and  _49
REMARK   24  A    between atoms: _51  and  _53
REMARK   25  A    between atoms: _53  and  _54
REMARK   26  A    between atoms: _53  and  _56
REMARK   27  A    between atoms: _56  and  _57
REMARK   28  A    between atoms: _59  and  _61
REMARK   29  A    between atoms: _61  and  _62
REMARK   30  A    between atoms: _61  and  _64
REMARK   31  A    between atoms: _64  and  _65
REMARK   32  A    between atoms: _71  and  _73
REMARK   33  A    between atoms: _73  and  _74
REMARK   34  A    between atoms: _76  and  _78
REMARK   35  A    between atoms: _78  and  _79
REMARK   36  A    between atoms: _78  and  _81
REMARK   37  A    between atoms: _81  and  _82
REMARK   38  A    between atoms: _82  and  _83
REMARK   39  A    between atoms: _83  and  _84
REMARK   40  A    between atoms: _93  and  _95
REMARK   41  A    between atoms: _95  and  _96
REMARK   42  A    between atoms: _95  and  _98
REMARK   43  A    between atoms: _101  and  _103
REMARK   44  A    between atoms: _103  and  _104
REMARK   45  A    between atoms: _103  and  _106
REMARK   46  A    between atoms: _106  and  _107
REMARK   47  A    between atoms: _107  and  _108
REMARK   48  A    between atoms: _110  and  _112
REMARK   49  A    between atoms: _112  and  _113
REMARK   50  A    between atoms: _112  and  _115
REMARK   51  A    between atoms: _115  and  _116
REMARK   52  A    between atoms: _119  and  _121
REMARK   53  A    between atoms: _121  and  _122
REMARK   54  A    between atoms: _121  and  _124
REMARK   55  A    between atoms: _124  and  _125
REMARK   56  A    between atoms: _130  and  _131
REMARK   57  A    between atoms: _133  and  _135
REMARK   58  A    between atoms: _135  and  _136
REMARK   59  A    between atoms: _139  and  _141
REMARK   60  A    between atoms: _141  and  _142
REMARK   61  A    between atoms: _141  and  _144
REMARK   62  A    between atoms: _144  and  _145
REMARK   63  A    between atoms: _145  and  _146
REMARK   64  A    between atoms: _148  and  _150
REMARK   65  A    between atoms: _150  and  _151
REMARK   66  A    between atoms: _150  and  _153
REMARK   67  A    between atoms: _153  and  _154
REMARK   68  A    between atoms: _154  and  _155
REMARK   69  A    between atoms: _155  and  _156
REMARK   70  A    between atoms: _156  and  _157
REMARK   71  A    between atoms: _161  and  _163
REMARK   72  A    between atoms: _163  and  _164
REMARK   73  A    between atoms: _163  and  _166
REMARK   74  A    between atoms: _166  and  _167
REMARK   75  A    between atoms: _170  and  _172
REMARK   76  A    between atoms: _172  and  _173
REMARK   77  A    between atoms: _172  and  _175
REMARK   78  A    between atoms: _175  and  _176
REMARK   79  A    between atoms: _179  and  _181
REMARK   80  A    between atoms: _181  and  _182
REMARK   81  A    between atoms: _181  and  _184
REMARK   82  A    between atoms: _184  and  _185
REMARK   83  A    between atoms: _188  and  _190
REMARK   84  A    between atoms: _190  and  _191
REMARK   85  A    between atoms: _190  and  _193
REMARK   86  A    between atoms: _196  and  _198
REMARK   87  A    between atoms: _198  and  _199
REMARK   88  A    between atoms: _198  and  _201
REMARK   89  A    between atoms: _201  and  _202
REMARK   90  A    between atoms: _205  and  _207
REMARK   91  A    between atoms: _207  and  _208
REMARK   92  A    between atoms: _207  and  _210
REMARK   93  A    between atoms: _210  and  _211
REMARK   94  A    between atoms: _211  and  _212
REMARK   95  A    between atoms: _215  and  _217
REMARK   96  A    between atoms: _217  and  _218
REMARK   97  A    between atoms: _217  and  _220
REMARK   98  A    between atoms: _220  and  _221
REMARK   99  A    between atoms: _224  and  _226
REMARK  100  A    between atoms: _226  and  _227
REMARK  101  A    between atoms: _226  and  _229
REMARK  102  A    between atoms: _232  and  _234
REMARK  103  A    between atoms: _234  and  _235
REMARK  104  A    between atoms: _234  and  _237
REMARK  105  A    between atoms: _237  and  _238
REMARK  106  A    between atoms: _238  and  _239
REMARK  107  A    between atoms: _239  and  _240
REMARK  108  A    between atoms: _240  and  _241
REMARK  109  A    between atoms: _245  and  _247
REMARK  110  A    between atoms: _247  and  _248
REMARK  111  A    between atoms: _247  and  _250
REMARK  112  A    between atoms: _250  and  _251
REMARK  113  A    between atoms: _254  and  _256
REMARK  114  A    between atoms: _256  and  _257
REMARK  115  A    between atoms: _256  and  _259
REMARK  116  A    between atoms: _259  and  _260
REMARK  117  A    between atoms: _260  and  _261
REMARK  118  A    between atoms: _263  and  _265
REMARK  119  A    between atoms: _265  and  _266
REMARK  120  A    between atoms: _265  and  _268
REMARK  121  A    between atoms: _271  and  _273
REMARK  122  A    between atoms: _273  and  _274
REMARK  123  A    between atoms: _273  and  _276
REMARK  124  A    between atoms: _276  and  _277
REMARK  125  A    between atoms: _277  and  _278
REMARK  126  A    between atoms: _280  and  _282
REMARK  127  A    between atoms: _282  and  _283
REMARK  128  A    between atoms: _282  and  _285
REMARK  129  A    between atoms: _285  and  _286
REMARK  130  A    between atoms: _286  and  _287
REMARK  131  A    between atoms: _290  and  _292
REMARK  132  A    between atoms: _292  and  _293
REMARK  133  A    between atoms: _292  and  _295
REMARK  134  A    between atoms: _295  and  _296
REMARK  135  A    between atoms: _301  and  _302
REMARK  136  A    between atoms: _304  and  _306
REMARK  137  A    between atoms: _306  and  _307
REMARK  138  A    between atoms: _306  and  _309
REMARK  139  A    between atoms: _312  and  _314
REMARK  140  A    between atoms: _314  and  _315
REMARK  141  A    between atoms: _318  and  _320
REMARK  142  A    between atoms: _320  and  _321
REMARK  143  A    between atoms: _323  and  _325
REMARK  144  A    between atoms: _325  and  _326
REMARK  145  A    between atoms: _328  and  _330
REMARK  146  A    between atoms: _330  and  _331
REMARK  147  A    between atoms: _330  and  _333
REMARK  148  A    between atoms: _333  and  _334
REMARK  149  A    between atoms: _334  and  _335
REMARK  150  A    between atoms: _338  and  _340
REMARK  151  A    between atoms: _340  and  _341
REMARK  152  A    between atoms: _340  and  _343
REMARK  153  A    between atoms: _343  and  _344
REMARK  154  A    between atoms: _344  and  _345
REMARK  155  A    between atoms: _347  and  _349
REMARK  156  A    between atoms: _349  and  _350
REMARK  157  A    between atoms: _349  and  _352
REMARK  158  A    between atoms: _352  and  _353
REMARK  159  A    between atoms: _359  and  _361
REMARK  160  A    between atoms: _361  and  _362
REMARK  161  A    between atoms: _361  and  _364
REMARK  162  A    between atoms: _364  and  _365
REMARK  163  A    between atoms: _370  and  _371
REMARK  164  A    between atoms: _373  and  _375
REMARK  165  A    between atoms: _375  and  _376
REMARK  166  A    between atoms: _375  and  _378
REMARK  167  A    between atoms: _378  and  _379
REMARK  168  A    between atoms: _382  and  _384
REMARK  169  A    between atoms: _384  and  _385
REMARK  170  A    between atoms: _384  and  _387
REMARK  171  A    between atoms: _387  and  _388
REMARK  172  A    between atoms: _388  and  _389
REMARK  173  A    between atoms: _389  and  _390
REMARK  174  A    between atoms: _390  and  _391
REMARK  175  A    between atoms: _396  and  _397
REMARK  176  A    between atoms: _402  and  _404
REMARK  177  A    between atoms: _404  and  _405
REMARK  178  A    between atoms: _404  and  _407
REMARK  179  A    between atoms: _407  and  _408
REMARK  180  A    between atoms: _408  and  _409
REMARK  181  A    between atoms: _412  and  _414
REMARK  182  A    between atoms: _414  and  _415
REMARK  183  A    between atoms: _414  and  _417
REMARK  184  A    between atoms: _417  and  _418
REMARK  185  A    between atoms: _423  and  _425
REMARK  186  A    between atoms: _425  and  _426
REMARK  187  A    between atoms: _425  and  _428
REMARK  188  A    between atoms: _428  and  _429
REMARK  189  A    between atoms: _432  and  _434
REMARK  190  A    between atoms: _434  and  _435
REMARK  191  A    between atoms: _434  and  _437
REMARK  192  A    between atoms: _437  and  _438
REMARK  193  A    between atoms: _441  and  _443
REMARK  194  A    between atoms: _443  and  _444
REMARK  195  A    between atoms: _443  and  _446
REMARK  196  A    between atoms: _446  and  _447
REMARK  197  A    between atoms: _450  and  _452
REMARK  198  A    between atoms: _452  and  _453
REMARK  199  A    between atoms: _452  and  _455
REMARK  200  A    between atoms: _455  and  _456
REMARK  201  A    between atoms: _459  and  _461
REMARK  202  A    between atoms: _461  and  _462
REMARK  203  A    between atoms: _461  and  _464
REMARK  204  A    between atoms: _464  and  _465
REMARK  205  A    between atoms: _465  and  _466
REMARK  206  A    between atoms: _471  and  _473
REMARK  207  A    between atoms: _473  and  _474
REMARK  208  A    between atoms: _473  and  _476
REMARK  209  A    between atoms: _479  and  _481
REMARK  210  A    between atoms: _481  and  _482
REMARK  211  A    between atoms: _481  and  _484
REMARK  212  A    between atoms: _484  and  _485
REMARK  213  A    between atoms: _488  and  _490
REMARK  214  A    between atoms: _490  and  _491
REMARK  215  A    between atoms: _490  and  _493
REMARK  216  A    between atoms: _493  and  _494
REMARK  217  A    between atoms: _497  and  _499
REMARK  218  A    between atoms: _499  and  _500
REMARK  219  A    between atoms: _499  and  _502
REMARK  220  A    between atoms: _502  and  _503
REMARK  221  A    between atoms: _509  and  _511
REMARK  222  A    between atoms: _511  and  _512
REMARK  223  A    between atoms: _514  and  _516
REMARK  224  A    between atoms: _516  and  _517
REMARK  225  A    between atoms: _516  and  _519
REMARK  226  A    between atoms: _519  and  _520
REMARK  227  A    between atoms: _523  and  _525
REMARK  228  A    between atoms: _525  and  _526
REMARK  229  A    between atoms: _525  and  _528
REMARK  230  A    between atoms: _528  and  _529
REMARK  231  A    between atoms: _534  and  _536
REMARK  232  A    between atoms: _536  and  _537
REMARK  233  A    between atoms: _536  and  _539
REMARK  234  A    between atoms: _539  and  _540
REMARK  235  A    between atoms: _546  and  _548
REMARK  236  A    between atoms: _548  and  _549
REMARK  237  A    between atoms: _548  and  _551
REMARK  238  A    between atoms: _551  and  _552
REMARK  239  A    between atoms: _555  and  _557
REMARK  240  A    between atoms: _557  and  _558
REMARK  241  A    between atoms: _557  and  _560
REMARK  242  A    between atoms: _560  and  _561
REMARK  243  A    between atoms: _566  and  _567
REMARK  244  A    between atoms: _569  and  _571
REMARK  245  A    between atoms: _571  and  _572
REMARK  246  A    between atoms: _571  and  _574
REMARK  247  A    between atoms: _574  and  _575
REMARK  248  A    between atoms: _575  and  _576
REMARK  249  A    between atoms: _576  and  _577
REMARK  250  A    between atoms: _586  and  _588
REMARK  251  A    between atoms: _588  and  _589
REMARK  252  A    between atoms: _588  and  _591
REMARK  253  A    between atoms: _591  and  _592
REMARK  254  A    between atoms: _592  and  _593
REMARK  255  A    between atoms: _593  and  _594
REMARK  256  A    between atoms: _603  and  _605
REMARK  257  A    between atoms: _605  and  _606
REMARK  258  A    between atoms: _605  and  _608
REMARK  259  A    between atoms: _608  and  _609
REMARK  260  A    between atoms: _614  and  _616
REMARK  261  A    between atoms: _616  and  _617
REMARK                            x       y       z     vdW  Elec       q    Type
REMARK                         _______ _______ _______ _____ _____    ______ ____
ROOT
ATOM      1  O   HOH     1      13.996  12.060  -7.053  0.00  0.00    +0.000 OA
ENDROOT
TORSDOF 0
REMARK  Name = ../refined-set-2016/1ydt/1ydt_pocket.pdb
REMARK  261 active torsions:
REMARK  status: ('A' for Active; 'I' for Inactive)
REMARK    1  A    between atoms: _1  and  _3
REMARK    2  A    between atoms: _3  and  _4
REMARK    3  A    between atoms: _3  and  _6
REMARK    4  A    between atoms: _6  and  _7
REMARK    5  A    between atoms: _7  and  _8
REMARK    6  A    between atoms: _8  and  _9
REMARK    7  A    between atoms: _9  and  _10
REMARK    8  A    between atoms: _14  and  _16
REMARK    9  A    between atoms: _16  and  _17
REMARK   10  A    between atoms: _16  and  _19
REMARK   11  A    between atoms: _19  and  _20
REMARK   12  A    between atoms: _23  and  _25
REMARK   13  A    between atoms: _25  and  _26
REMARK   14  A    between atoms: _25  and  _28
REMARK   15  A    between atoms: _28  and  _29
REMARK   16  A    between atoms: _32  and  _34
REMARK   17  A    between atoms: _34  and  _35
REMARK   18  A    between atoms: _37  and  _39
REMARK   19  A    between atoms: _39  and  _40
REMARK   20  A    between atoms: _39  and  _42
REMARK   21  A    between atoms: _42  and  _43
REMARK   22  A    between atoms: _46  and  _48
REMARK   23  A    between atoms: _48  and  _49
REMARK   24  A    between atoms: _51  and  _53
REMARK   25  A    between atoms: _53  and  _54
REMARK   26  A    between atoms: _53  and  _56
REMARK   27  A    between atoms: _56  and  _57
REMARK   28  A    between atoms: _59  and  _61
REMARK   29  A    between atoms: _61  and  _62
REMARK   30  A    between atoms: _61  and  _64
REMARK   31  A    between atoms: _64  and  _65
REMARK   32  A    between atoms: _71  and  _73
REMARK   33  A    between atoms: _73  and  _74
REMARK   34  A    between atoms: _76  and  _78
REMARK   35  A    between atoms: _78  and  _79
REMARK   36  A    between atoms: _78  and  _81
REMARK   37  A    between atoms: _81  and  _82
REMARK   38  A    between atoms: _82  and  _83
REMARK   39  A    between atoms: _83  and  _84
REMARK   40  A    between atoms: _93  and  _95
REMARK   41  A    between atoms: _95  and  _96
REMARK   42  A    between atoms: _95  and  _98
REMARK   43  A    between atoms: _101  and  _103
REMARK   44  A    between atoms: _103  and  _104
REMARK   45  A    between atoms: _103  and  _106
REMARK   46  A    between atoms: _106  and  _107
REMARK   47  A    between atoms: _107  and  _108
REMARK   48  A    between atoms: _110  and  _112
REMARK   49  A    between atoms: _112  and  _113
REMARK   50  A    between atoms: _112  and  _115
REMARK   51  A    between atoms: _115  and  _116
REMARK   52  A    between atoms: _119  and  _121
REMARK   53  A    between atoms: _121  and  _122
REMARK   54  A    between atoms: _121  and  _124
REMARK   55  A    between atoms: _124  and  _125
REMARK   56  A    between atoms: _130  and  _131
REMARK   57  A    between atoms: _133  and  _135
REMARK   58  A    between atoms: _135  and  _136
REMARK   59  A    between atoms: _139  and  _141
REMARK   60  A    between atoms: _141  and  _142
REMARK   61  A    between atoms: _141  and  _144
REMARK   62  A    between atoms: _144  and  _145
REMARK   63  A    between atoms: _145  and  _146
REMARK   64  A    between atoms: _148  and  _150
REMARK   65  A    between atoms: _150  and  _151
REMARK   66  A    between atoms: _150  and  _153
REMARK   67  A    between atoms: _153  and  _154
REMARK   68  A    between atoms: _154  and  _155
REMARK   69  A    between atoms: _155  and  _156
REMARK   70  A    between atoms: _156  and  _157
REMARK   71  A    between atoms: _161  and  _163
REMARK   72  A    between atoms: _163  and  _164
REMARK   73  A    between atoms: _163  and  _166
REMARK   74  A    between atoms: _166  and  _167
REMARK   75  A    between atoms: _170  and  _172
REMARK   76  A    between atoms: _172  and  _173
REMARK   77  A    between atoms: _172  and  _175
REMARK   78  A    between atoms: _175  and  _176
REMARK   79  A    between atoms: _179  and  _181
REMARK   80  A    between atoms: _181  and  _182
REMARK   81  A    between atoms: _181  and  _184
REMARK   82  A    between atoms: _184  and  _185
REMARK   83  A    between atoms: _188  and  _190
REMARK   84  A    between atoms: _190  and  _191
REMARK   85  A    between atoms: _190  and  _193
REMARK   86  A    between atoms: _196  and  _198
REMARK   87  A    between atoms: _198  and  _199
REMARK   88  A    between atoms: _198  and  _201
REMARK   89  A    between atoms: _201  and  _202
REMARK   90  A    between atoms: _205  and  _207
REMARK   91  A    between atoms: _207  and  _208
REMARK   92  A    between atoms: _207  and  _210
REMARK   93  A    between atoms: _210  and  _211
REMARK   94  A    between atoms: _211  and  _212
REMARK   95  A    between atoms: _215  and  _217
REMARK   96  A    between atoms: _217  and  _218
REMARK   97  A    between atoms: _217  and  _220
REMARK   98  A    between atoms: _220  and  _221
REMARK   99  A    between atoms: _224  and  _226
REMARK  100  A    between atoms: _226  and  _227
REMARK  101  A    between atoms: _226  and  _229
REMARK  102  A    between atoms: _232  and  _234
REMARK  103  A    between atoms: _234  and  _235
REMARK  104  A    between atoms: _234  and  _237
REMARK  105  A    between atoms: _237  and  _238
REMARK  106  A    between atoms: _238  and  _239
REMARK  107  A    between atoms: _239  and  _240
REMARK  108  A    between atoms: _240  and  _241
REMARK  109  A    between atoms: _245  and  _247
REMARK  110  A    between atoms: _247  and  _248
REMARK  111  A    between atoms: _247  and  _250
REMARK  112  A    between atoms: _250  and  _251
REMARK  113  A    between atoms: _254  and  _256
REMARK  114  A    between atoms: _256  and  _257
REMARK  115  A    between atoms: _256  and  _259
REMARK  116  A    between atoms: _259  and  _260
REMARK  117  A    between atoms: _260  and  _261
REMARK  118  A    between atoms: _263  and  _265
REMARK  119  A    between atoms: _265  and  _266
REMARK  120  A    between atoms: _265  and  _268
REMARK  121  A    between atoms: _271  and  _273
REMARK  122  A    between atoms: _273  and  _274
REMARK  123  A    between atoms: _273  and  _276
REMARK  124  A    between atoms: _276  and  _277
REMARK  125  A    between atoms: _277  and  _278
REMARK  126  A    between atoms: _280  and  _282
REMARK  127  A    between atoms: _282  and  _283
REMARK  128  A    between atoms: _282  and  _285
REMARK  129  A    between atoms: _285  and  _286
REMARK  130  A    between atoms: _286  and  _287
REMARK  131  A    between atoms: _290  and  _292
REMARK  132  A    between atoms: _292  and  _293
REMARK  133  A    between atoms: _292  and  _295
REMARK  134  A    between atoms: _295  and  _296
REMARK  135  A    between atoms: _301  and  _302
REMARK  136  A    between atoms: _304  and  _306
REMARK  137  A    between atoms: _306  and  _307
REMARK  138  A    between atoms: _306  and  _309
REMARK  139  A    between atoms: _312  and  _314
REMARK  140  A    between atoms: _314  and  _315
REMARK  141  A    between atoms: _318  and  _320
REMARK  142  A    between atoms: _320  and  _321
REMARK  143  A    between atoms: _323  and  _325
REMARK  144  A    between atoms: _325  and  _326
REMARK  145  A    between atoms: _328  and  _330
REMARK  146  A    between atoms: _330  and  _331
REMARK  147  A    between atoms: _330  and  _333
REMARK  148  A    between atoms: _333  and  _334
REMARK  149  A    between atoms: _334  and  _335
REMARK  150  A    between atoms: _338  and  _340
REMARK  151  A    between atoms: _340  and  _341
REMARK  152  A    between atoms: _340  and  _343
REMARK  153  A    between atoms: _343  and  _344
REMARK  154  A    between atoms: _344  and  _345
REMARK  155  A    between atoms: _347  and  _349
REMARK  156  A    between atoms: _349  and  _350
REMARK  157  A    between atoms: _349  and  _352
REMARK  158  A    between atoms: _352  and  _353
REMARK  159  A    between atoms: _359  and  _361
REMARK  160  A    between atoms: _361  and  _362
REMARK  161  A    between atoms: _361  and  _364
REMARK  162  A    between atoms: _364  and  _365
REMARK  163  A    between atoms: _370  and  _371
REMARK  164  A    between atoms: _373  and  _375
REMARK  165  A    between atoms: _375  and  _376
REMARK  166  A    between atoms: _375  and  _378
REMARK  167  A    between atoms: _378  and  _379
REMARK  168  A    between atoms: _382  and  _384
REMARK  169  A    between atoms: _384  and  _385
REMARK  170  A    between atoms: _384  and  _387
REMARK  171  A    between atoms: _387  and  _388
REMARK  172  A    between atoms: _388  and  _389
REMARK  173  A    between atoms: _389  and  _390
REMARK  174  A    between atoms: _390  and  _391
REMARK  175  A    between atoms: _396  and  _397
REMARK  176  A    between atoms: _402  and  _404
REMARK  177  A    between atoms: _404  and  _405
REMARK  178  A    between atoms: _404  and  _407
REMARK  179  A    between atoms: _407  and  _408
REMARK  180  A    between atoms: _408  and  _409
REMARK  181  A    between atoms: _412  and  _414
REMARK  182  A    between atoms: _414  and  _415
REMARK  183  A    between atoms: _414  and  _417
REMARK  184  A    between atoms: _417  and  _418
REMARK  185  A    between atoms: _423  and  _425
REMARK  186  A    between atoms: _425  and  _426
REMARK  187  A    between atoms: _425  and  _428
REMARK  188  A    between atoms: _428  and  _429
REMARK  189  A    between atoms: _432  and  _434
REMARK  190  A    between atoms: _434  and  _435
REMARK  191  A    between atoms: _434  and  _437
REMARK  192  A    between atoms: _437  and  _438
REMARK  193  A    between atoms: _441  and  _443
REMARK  194  A    between atoms: _443  and  _444
REMARK  195  A    between atoms: _443  and  _446
REMARK  196  A    between atoms: _446  and  _447
REMARK  197  A    between atoms: _450  and  _452
REMARK  198  A    between atoms: _452  and  _453
REMARK  199  A    between atoms: _452  and  _455
REMARK  200  A    between atoms: _455  and  _456
REMARK  201  A    between atoms: _459  and  _461
REMARK  202  A    between atoms: _461  and  _462
REMARK  203  A    between atoms: _461  and  _464
REMARK  204  A    between atoms: _464  and  _465
REMARK  205  A    between atoms: _465  and  _466
REMARK  206  A    between atoms: _471  and  _473
REMARK  207  A    between atoms: _473  and  _474
REMARK  208  A    between atoms: _473  and  _476
REMARK  209  A    between atoms: _479  and  _481
REMARK  210  A    between atoms: _481  and  _482
REMARK  211  A    between atoms: _481  and  _484
REMARK  212  A    between atoms: _484  and  _485
REMARK  213  A    between atoms: _488  and  _490
REMARK  214  A    between atoms: _490  and  _491
REMARK  215  A    between atoms: _490  and  _493
REMARK  216  A    between atoms: _493  and  _494
REMARK  217  A    between atoms: _497  and  _499
REMARK  218  A    between atoms: _499  and  _500
REMARK  219  A    between atoms: _499  and  _502
REMARK  220  A    between atoms: _502  and  _503
REMARK  221  A    between atoms: _509  and  _511
REMARK  222  A    between atoms: _511  and  _512
REMARK  223  A    between atoms: _514  and  _516
REMARK  224  A    between atoms: _516  and  _517
REMARK  225  A    between atoms: _516  and  _519
REMARK  226  A    between atoms: _519  and  _520
REMARK  227  A    between atoms: _523  and  _525
REMARK  228  A    between atoms: _525  and  _526
REMARK  229  A    between atoms: _525  and  _528
REMARK  230  A    between atoms: _528  and  _529
REMARK  231  A    between atoms: _534  and  _536
REMARK  232  A    between atoms: _536  and  _537
REMARK  233  A    between atoms: _536  and  _539
REMARK  234  A    between atoms: _539  and  _540
REMARK  235  A    between atoms: _546  and  _548
REMARK  236  A    between atoms: _548  and  _549
REMARK  237  A    between atoms: _548  and  _551
REMARK  238  A    between atoms: _551  and  _552
REMARK  239  A    between atoms: _555  and  _557
REMARK  240  A    between atoms: _557  and  _558
REMARK  241  A    between atoms: _557  and  _560
REMARK  242  A    between atoms: _560  and  _561
REMARK  243  A    between atoms: _566  and  _567
REMARK  244  A    between atoms: _569  and  _571
REMARK  245  A    between atoms: _571  and  _572
REMARK  246  A    between atoms: _571  and  _574
REMARK  247  A    between atoms: _574  and  _575
REMARK  248  A    between atoms: _575  and  _576
REMARK  249  A    between atoms: _576  and  _577
REMARK  250  A    between atoms: _586  and  _588
REMARK  251  A    between atoms: _588  and  _589
REMARK  252  A    between atoms: _588  and  _591
REMARK  253  A    between atoms: _591  and  _592
REMARK  254  A    between atoms: _592  and  _593
REMARK  255  A    between atoms: _593  and  _594
REMARK  256  A    between atoms: _603  and  _605
REMARK  257  A    between atoms: _605  and  _606
REMARK  258  A    between atoms: _605  and  _608
REMARK  259  A    between atoms: _608  and  _609
REMARK  260  A    between atoms: _614  and  _616
REMARK  261  A    between atoms: _616  and  _617
REMARK                            x       y       z     vdW  Elec       q    Type
REMARK                         _______ _______ _______ _____ _____    ______ ____
ROOT
ATOM      1  O   HOH     1      14.035   6.670  -4.194  0.00  0.00    +0.000 OA
ENDROOT
TORSDOF 0
REMARK  Name = ../refined-set-2016/1ydt/1ydt_pocket.pdb
REMARK  261 active torsions:
REMARK  status: ('A' for Active; 'I' for Inactive)
REMARK    1  A    between atoms: _1  and  _3
REMARK    2  A    between atoms: _3  and  _4
REMARK    3  A    between atoms: _3  and  _6
REMARK    4  A    between atoms: _6  and  _7
REMARK    5  A    between atoms: _7  and  _8
REMARK    6  A    between atoms: _8  and  _9
REMARK    7  A    between atoms: _9  and  _10
REMARK    8  A    between atoms: _14  and  _16
REMARK    9  A    between atoms: _16  and  _17
REMARK   10  A    between atoms: _16  and  _19
REMARK   11  A    between atoms: _19  and  _20
REMARK   12  A    between atoms: _23  and  _25
REMARK   13  A    between atoms: _25  and  _26
REMARK   14  A    between atoms: _25  and  _28
REMARK   15  A    between atoms: _28  and  _29
REMARK   16  A    between atoms: _32  and  _34
REMARK   17  A    between atoms: _34  and  _35
REMARK   18  A    between atoms: _37  and  _39
REMARK   19  A    between atoms: _39  and  _40
REMARK   20  A    between atoms: _39  and  _42
REMARK   21  A    between atoms: _42  and  _43
REMARK   22  A    between atoms: _46  and  _48
REMARK   23  A    between atoms: _48  and  _49
REMARK   24  A    between atoms: _51  and  _53
REMARK   25  A    between atoms: _53  and  _54
REMARK   26  A    between atoms: _53  and  _56
REMARK   27  A    between atoms: _56  and  _57
REMARK   28  A    between atoms: _59  and  _61
REMARK   29  A    between atoms: _61  and  _62
REMARK   30  A    between atoms: _61  and  _64
REMARK   31  A    between atoms: _64  and  _65
REMARK   32  A    between atoms: _71  and  _73
REMARK   33  A    between atoms: _73  and  _74
REMARK   34  A    between atoms: _76  and  _78
REMARK   35  A    between atoms: _78  and  _79
REMARK   36  A    between atoms: _78  and  _81
REMARK   37  A    between atoms: _81  and  _82
REMARK   38  A    between atoms: _82  and  _83
REMARK   39  A    between atoms: _83  and  _84
REMARK   40  A    between atoms: _93  and  _95
REMARK   41  A    between atoms: _95  and  _96
REMARK   42  A    between atoms: _95  and  _98
REMARK   43  A    between atoms: _101  and  _103
REMARK   44  A    between atoms: _103  and  _104
REMARK   45  A    between atoms: _103  and  _106
REMARK   46  A    between atoms: _106  and  _107
REMARK   47  A    between atoms: _107  and  _108
REMARK   48  A    between atoms: _110  and  _112
REMARK   49  A    between atoms: _112  and  _113
REMARK   50  A    between atoms: _112  and  _115
REMARK   51  A    between atoms: _115  and  _116
REMARK   52  A    between atoms: _119  and  _121
REMARK   53  A    between atoms: _121  and  _122
REMARK   54  A    between atoms: _121  and  _124
REMARK   55  A    between atoms: _124  and  _125
REMARK   56  A    between atoms: _130  and  _131
REMARK   57  A    between atoms: _133  and  _135
REMARK   58  A    between atoms: _135  and  _136
REMARK   59  A    between atoms: _139  and  _141
REMARK   60  A    between atoms: _141  and  _142
REMARK   61  A    between atoms: _141  and  _144
REMARK   62  A    between atoms: _144  and  _145
REMARK   63  A    between atoms: _145  and  _146
REMARK   64  A    between atoms: _148  and  _150
REMARK   65  A    between atoms: _150  and  _151
REMARK   66  A    between atoms: _150  and  _153
REMARK   67  A    between atoms: _153  and  _154
REMARK   68  A    between atoms: _154  and  _155
REMARK   69  A    between atoms: _155  and  _156
REMARK   70  A    between atoms: _156  and  _157
REMARK   71  A    between atoms: _161  and  _163
REMARK   72  A    between atoms: _163  and  _164
REMARK   73  A    between atoms: _163  and  _166
REMARK   74  A    between atoms: _166  and  _167
REMARK   75  A    between atoms: _170  and  _172
REMARK   76  A    between atoms: _172  and  _173
REMARK   77  A    between atoms: _172  and  _175
REMARK   78  A    between atoms: _175  and  _176
REMARK   79  A    between atoms: _179  and  _181
REMARK   80  A    between atoms: _181  and  _182
REMARK   81  A    between atoms: _181  and  _184
REMARK   82  A    between atoms: _184  and  _185
REMARK   83  A    between atoms: _188  and  _190
REMARK   84  A    between atoms: _190  and  _191
REMARK   85  A    between atoms: _190  and  _193
REMARK   86  A    between atoms: _196  and  _198
REMARK   87  A    between atoms: _198  and  _199
REMARK   88  A    between atoms: _198  and  _201
REMARK   89  A    between atoms: _201  and  _202
REMARK   90  A    between atoms: _205  and  _207
REMARK   91  A    between atoms: _207  and  _208
REMARK   92  A    between atoms: _207  and  _210
REMARK   93  A    between atoms: _210  and  _211
REMARK   94  A    between atoms: _211  and  _212
REMARK   95  A    between atoms: _215  and  _217
REMARK   96  A    between atoms: _217  and  _218
REMARK   97  A    between atoms: _217  and  _220
REMARK   98  A    between atoms: _220  and  _221
REMARK   99  A    between atoms: _224  and  _226
REMARK  100  A    between atoms: _226  and  _227
REMARK  101  A    between atoms: _226  and  _229
REMARK  102  A    between atoms: _232  and  _234
REMARK  103  A    between atoms: _234  and  _235
REMARK  104  A    between atoms: _234  and  _237
REMARK  105  A    between atoms: _237  and  _238
REMARK  106  A    between atoms: _238  and  _239
REMARK  107  A    between atoms: _239  and  _240
REMARK  108  A    between atoms: _240  and  _241
REMARK  109  A    between atoms: _245  and  _247
REMARK  110  A    between atoms: _247  and  _248
REMARK  111  A    between atoms: _247  and  _250
REMARK  112  A    between atoms: _250  and  _251
REMARK  113  A    between atoms: _254  and  _256
REMARK  114  A    between atoms: _256  and  _257
REMARK  115  A    between atoms: _256  and  _259
REMARK  116  A    between atoms: _259  and  _260
REMARK  117  A    between atoms: _260  and  _261
REMARK  118  A    between atoms: _263  and  _265
REMARK  119  A    between atoms: _265  and  _266
REMARK  120  A    between atoms: _265  and  _268
REMARK  121  A    between atoms: _271  and  _273
REMARK  122  A    between atoms: _273  and  _274
REMARK  123  A    between atoms: _273  and  _276
REMARK  124  A    between atoms: _276  and  _277
REMARK  125  A    between atoms: _277  and  _278
REMARK  126  A    between atoms: _280  and  _282
REMARK  127  A    between atoms: _282  and  _283
REMARK  128  A    between atoms: _282  and  _285
REMARK  129  A    between atoms: _285  and  _286
REMARK  130  A    between atoms: _286  and  _287
REMARK  131  A    between atoms: _290  and  _292
REMARK  132  A    between atoms: _292  and  _293
REMARK  133  A    between atoms: _292  and  _295
REMARK  134  A    between atoms: _295  and  _296
REMARK  135  A    between atoms: _301  and  _302
REMARK  136  A    between atoms: _304  and  _306
REMARK  137  A    between atoms: _306  and  _307
REMARK  138  A    between atoms: _306  and  _309
REMARK  139  A    between atoms: _312  and  _314
REMARK  140  A    between atoms: _314  and  _315
REMARK  141  A    between atoms: _318  and  _320
REMARK  142  A    between atoms: _320  and  _321
REMARK  143  A    between atoms: _323  and  _325
REMARK  144  A    between atoms: _325  and  _326
REMARK  145  A    between atoms: _328  and  _330
REMARK  146  A    between atoms: _330  and  _331
REMARK  147  A    between atoms: _330  and  _333
REMARK  148  A    between atoms: _333  and  _334
REMARK  149  A    between atoms: _334  and  _335
REMARK  150  A    between atoms: _338  and  _340
REMARK  151  A    between atoms: _340  and  _341
REMARK  152  A    between atoms: _340  and  _343
REMARK  153  A    between atoms: _343  and  _344
REMARK  154  A    between atoms: _344  and  _345
REMARK  155  A    between atoms: _347  and  _349
REMARK  156  A    between atoms: _349  and  _350
REMARK  157  A    between atoms: _349  and  _352
REMARK  158  A    between atoms: _352  and  _353
REMARK  159  A    between atoms: _359  and  _361
REMARK  160  A    between atoms: _361  and  _362
REMARK  161  A    between atoms: _361  and  _364
REMARK  162  A    between atoms: _364  and  _365
REMARK  163  A    between atoms: _370  and  _371
REMARK  164  A    between atoms: _373  and  _375
REMARK  165  A    between atoms: _375  and  _376
REMARK  166  A    between atoms: _375  and  _378
REMARK  167  A    between atoms: _378  and  _379
REMARK  168  A    between atoms: _382  and  _384
REMARK  169  A    between atoms: _384  and  _385
REMARK  170  A    between atoms: _384  and  _387
REMARK  171  A    between atoms: _387  and  _388
REMARK  172  A    between atoms: _388  and  _389
REMARK  173  A    between atoms: _389  and  _390
REMARK  174  A    between atoms: _390  and  _391
REMARK  175  A    between atoms: _396  and  _397
REMARK  176  A    between atoms: _402  and  _404
REMARK  177  A    between atoms: _404  and  _405
REMARK  178  A    between atoms: _404  and  _407
REMARK  179  A    between atoms: _407  and  _408
REMARK  180  A    between atoms: _408  and  _409
REMARK  181  A    between atoms: _412  and  _414
REMARK  182  A    between atoms: _414  and  _415
REMARK  183  A    between atoms: _414  and  _417
REMARK  184  A    between atoms: _417  and  _418
REMARK  185  A    between atoms: _423  and  _425
REMARK  186  A    between atoms: _425  and  _426
REMARK  187  A    between atoms: _425  and  _428
REMARK  188  A    between atoms: _428  and  _429
REMARK  189  A    between atoms: _432  and  _434
REMARK  190  A    between atoms: _434  and  _435
REMARK  191  A    between atoms: _434  and  _437
REMARK  192  A    between atoms: _437  and  _438
REMARK  193  A    between atoms: _441  and  _443
REMARK  194  A    between atoms: _443  and  _444
REMARK  195  A    between atoms: _443  and  _446
REMARK  196  A    between atoms: _446  and  _447
REMARK  197  A    between atoms: _450  and  _452
REMARK  198  A    between atoms: _452  and  _453
REMARK  199  A    between atoms: _452  and  _455
REMARK  200  A    between atoms: _455  and  _456
REMARK  201  A    between atoms: _459  and  _461
REMARK  202  A    between atoms: _461  and  _462
REMARK  203  A    between atoms: _461  and  _464
REMARK  204  A    between atoms: _464  and  _465
REMARK  205  A    between atoms: _465  and  _466
REMARK  206  A    between atoms: _471  and  _473
REMARK  207  A    between atoms: _473  and  _474
REMARK  208  A    between atoms: _473  and  _476
REMARK  209  A    between atoms: _479  and  _481
REMARK  210  A    between atoms: _481  and  _482
REMARK  211  A    between atoms: _481  and  _484
REMARK  212  A    between atoms: _484  and  _485
REMARK  213  A    between atoms: _488  and  _490
REMARK  214  A    between atoms: _490  and  _491
REMARK  215  A    between atoms: _490  and  _493
REMARK  216  A    between atoms: _493  and  _494
REMARK  217  A    between atoms: _497  and  _499
REMARK  218  A    between atoms: _499  and  _500
REMARK  219  A    between atoms: _499  and  _502
REMARK  220  A    between atoms: _502  and  _503
REMARK  221  A    between atoms: _509  and  _511
REMARK  222  A    between atoms: _511  and  _512
REMARK  223  A    between atoms: _514  and  _516
REMARK  224  A    between atoms: _516  and  _517
REMARK  225  A    between atoms: _516  and  _519
REMARK  226  A    between atoms: _519  and  _520
REMARK  227  A    between atoms: _523  and  _525
REMARK  228  A    between atoms: _525  and  _526
REMARK  229  A    between atoms: _525  and  _528
REMARK  230  A    between atoms: _528  and  _529
REMARK  231  A    between atoms: _534  and  _536
REMARK  232  A    between atoms: _536  and  _537
REMARK  233  A    between atoms: _536  and  _539
REMARK  234  A    between atoms: _539  and  _540
REMARK  235  A    between atoms: _546  and  _548
REMARK  236  A    between atoms: _548  and  _549
REMARK  237  A    between atoms: _548  and  _551
REMARK  238  A    between atoms: _551  and  _552
REMARK  239  A    between atoms: _555  and  _557
REMARK  240  A    between atoms: _557  and  _558
REMARK  241  A    between atoms: _557  and  _560
REMARK  242  A    between atoms: _560  and  _561
REMARK  243  A    between atoms: _566  and  _567
REMARK  244  A    between atoms: _569  and  _571
REMARK  245  A    between atoms: _571  and  _572
REMARK  246  A    between atoms: _571  and  _574
REMARK  247  A    between atoms: _574  and  _575
REMARK  248  A    between atoms: _575  and  _576
REMARK  249  A    between atoms: _576  and  _577
REMARK  250  A    between atoms: _586  and  _588
REMARK  251  A    between atoms: _588  and  _589
REMARK  252  A    between atoms: _588  and  _591
REMARK  253  A    between atoms: _591  and  _592
REMARK  254  A    between atoms: _592  and  _593
REMARK  255  A    between atoms: _593  and  _594
REMARK  256  A    between atoms: _603  and  _605
REMARK  257  A    between atoms: _605  and  _606
REMARK  258  A    between atoms: _605  and  _608
REMARK  259  A    between atoms: _608  and  _609
REMARK  260  A    between atoms: _614  and  _616
REMARK  261  A    between atoms: _616  and  _617
REMARK                            x       y       z     vdW  Elec       q    Type
REMARK                         _______ _______ _______ _____ _____    ______ ____
ROOT
ATOM      1  O   HOH     1       8.077   9.499  -2.049  0.00  0.00    +0.000 OA
ENDROOT
TORSDOF 0
REMARK  Name = ../refined-set-2016/1ydt/1ydt_pocket.pdb
REMARK  261 active torsions:
REMARK  status: ('A' for Active; 'I' for Inactive)
REMARK    1  A    between atoms: _1  and  _3
REMARK    2  A    between atoms: _3  and  _4
REMARK    3  A    between atoms: _3  and  _6
REMARK    4  A    between atoms: _6  and  _7
REMARK    5  A    between atoms: _7  and  _8
REMARK    6  A    between atoms: _8  and  _9
REMARK    7  A    between atoms: _9  and  _10
REMARK    8  A    between atoms: _14  and  _16
REMARK    9  A    between atoms: _16  and  _17
REMARK   10  A    between atoms: _16  and  _19
REMARK   11  A    between atoms: _19  and  _20
REMARK   12  A    between atoms: _23  and  _25
REMARK   13  A    between atoms: _25  and  _26
REMARK   14  A    between atoms: _25  and  _28
REMARK   15  A    between atoms: _28  and  _29
REMARK   16  A    between atoms: _32  and  _34
REMARK   17  A    between atoms: _34  and  _35
REMARK   18  A    between atoms: _37  and  _39
REMARK   19  A    between atoms: _39  and  _40
REMARK   20  A    between atoms: _39  and  _42
REMARK   21  A    between atoms: _42  and  _43
REMARK   22  A    between atoms: _46  and  _48
REMARK   23  A    between atoms: _48  and  _49
REMARK   24  A    between atoms: _51  and  _53
REMARK   25  A    between atoms: _53  and  _54
REMARK   26  A    between atoms: _53  and  _56
REMARK   27  A    between atoms: _56  and  _57
REMARK   28  A    between atoms: _59  and  _61
REMARK   29  A    between atoms: _61  and  _62
REMARK   30  A    between atoms: _61  and  _64
REMARK   31  A    between atoms: _64  and  _65
REMARK   32  A    between atoms: _71  and  _73
REMARK   33  A    between atoms: _73  and  _74
REMARK   34  A    between atoms: _76  and  _78
REMARK   35  A    between atoms: _78  and  _79
REMARK   36  A    between atoms: _78  and  _81
REMARK   37  A    between atoms: _81  and  _82
REMARK   38  A    between atoms: _82  and  _83
REMARK   39  A    between atoms: _83  and  _84
REMARK   40  A    between atoms: _93  and  _95
REMARK   41  A    between atoms: _95  and  _96
REMARK   42  A    between atoms: _95  and  _98
REMARK   43  A    between atoms: _101  and  _103
REMARK   44  A    between atoms: _103  and  _104
REMARK   45  A    between atoms: _103  and  _106
REMARK   46  A    between atoms: _106  and  _107
REMARK   47  A    between atoms: _107  and  _108
REMARK   48  A    between atoms: _110  and  _112
REMARK   49  A    between atoms: _112  and  _113
REMARK   50  A    between atoms: _112  and  _115
REMARK   51  A    between atoms: _115  and  _116
REMARK   52  A    between atoms: _119  and  _121
REMARK   53  A    between atoms: _121  and  _122
REMARK   54  A    between atoms: _121  and  _124
REMARK   55  A    between atoms: _124  and  _125
REMARK   56  A    between atoms: _130  and  _131
REMARK   57  A    between atoms: _133  and  _135
REMARK   58  A    between atoms: _135  and  _136
REMARK   59  A    between atoms: _139  and  _141
REMARK   60  A    between atoms: _141  and  _142
REMARK   61  A    between atoms: _141  and  _144
REMARK   62  A    between atoms: _144  and  _145
REMARK   63  A    between atoms: _145  and  _146
REMARK   64  A    between atoms: _148  and  _150
REMARK   65  A    between atoms: _150  and  _151
REMARK   66  A    between atoms: _150  and  _153
REMARK   67  A    between atoms: _153  and  _154
REMARK   68  A    between atoms: _154  and  _155
REMARK   69  A    between atoms: _155  and  _156
REMARK   70  A    between atoms: _156  and  _157
REMARK   71  A    between atoms: _161  and  _163
REMARK   72  A    between atoms: _163  and  _164
REMARK   73  A    between atoms: _163  and  _166
REMARK   74  A    between atoms: _166  and  _167
REMARK   75  A    between atoms: _170  and  _172
REMARK   76  A    between atoms: _172  and  _173
REMARK   77  A    between atoms: _172  and  _175
REMARK   78  A    between atoms: _175  and  _176
REMARK   79  A    between atoms: _179  and  _181
REMARK   80  A    between atoms: _181  and  _182
REMARK   81  A    between atoms: _181  and  _184
REMARK   82  A    between atoms: _184  and  _185
REMARK   83  A    between atoms: _188  and  _190
REMARK   84  A    between atoms: _190  and  _191
REMARK   85  A    between atoms: _190  and  _193
REMARK   86  A    between atoms: _196  and  _198
REMARK   87  A    between atoms: _198  and  _199
REMARK   88  A    between atoms: _198  and  _201
REMARK   89  A    between atoms: _201  and  _202
REMARK   90  A    between atoms: _205  and  _207
REMARK   91  A    between atoms: _207  and  _208
REMARK   92  A    between atoms: _207  and  _210
REMARK   93  A    between atoms: _210  and  _211
REMARK   94  A    between atoms: _211  and  _212
REMARK   95  A    between atoms: _215  and  _217
REMARK   96  A    between atoms: _217  and  _218
REMARK   97  A    between atoms: _217  and  _220
REMARK   98  A    between atoms: _220  and  _221
REMARK   99  A    between atoms: _224  and  _226
REMARK  100  A    between atoms: _226  and  _227
REMARK  101  A    between atoms: _226  and  _229
REMARK  102  A    between atoms: _232  and  _234
REMARK  103  A    between atoms: _234  and  _235
REMARK  104  A    between atoms: _234  and  _237
REMARK  105  A    between atoms: _237  and  _238
REMARK  106  A    between atoms: _238  and  _239
REMARK  107  A    between atoms: _239  and  _240
REMARK  108  A    between atoms: _240  and  _241
REMARK  109  A    between atoms: _245  and  _247
REMARK  110  A    between atoms: _247  and  _248
REMARK  111  A    between atoms: _247  and  _250
REMARK  112  A    between atoms: _250  and  _251
REMARK  113  A    between atoms: _254  and  _256
REMARK  114  A    between atoms: _256  and  _257
REMARK  115  A    between atoms: _256  and  _259
REMARK  116  A    between atoms: _259  and  _260
REMARK  117  A    between atoms: _260  and  _261
REMARK  118  A    between atoms: _263  and  _265
REMARK  119  A    between atoms: _265  and  _266
REMARK  120  A    between atoms: _265  and  _268
REMARK  121  A    between atoms: _271  and  _273
REMARK  122  A    between atoms: _273  and  _274
REMARK  123  A    between atoms: _273  and  _276
REMARK  124  A    between atoms: _276  and  _277
REMARK  125  A    between atoms: _277  and  _278
REMARK  126  A    between atoms: _280  and  _282
REMARK  127  A    between atoms: _282  and  _283
REMARK  128  A    between atoms: _282  and  _285
REMARK  129  A    between atoms: _285  and  _286
REMARK  130  A    between atoms: _286  and  _287
REMARK  131  A    between atoms: _290  and  _292
REMARK  132  A    between atoms: _292  and  _293
REMARK  133  A    between atoms: _292  and  _295
REMARK  134  A    between atoms: _295  and  _296
REMARK  135  A    between atoms: _301  and  _302
REMARK  136  A    between atoms: _304  and  _306
REMARK  137  A    between atoms: _306  and  _307
REMARK  138  A    between atoms: _306  and  _309
REMARK  139  A    between atoms: _312  and  _314
REMARK  140  A    between atoms: _314  and  _315
REMARK  141  A    between atoms: _318  and  _320
REMARK  142  A    between atoms: _320  and  _321
REMARK  143  A    between atoms: _323  and  _325
REMARK  144  A    between atoms: _325  and  _326
REMARK  145  A    between atoms: _328  and  _330
REMARK  146  A    between atoms: _330  and  _331
REMARK  147  A    between atoms: _330  and  _333
REMARK  148  A    between atoms: _333  and  _334
REMARK  149  A    between atoms: _334  and  _335
REMARK  150  A    between atoms: _338  and  _340
REMARK  151  A    between atoms: _340  and  _341
REMARK  152  A    between atoms: _340  and  _343
REMARK  153  A    between atoms: _343  and  _344
REMARK  154  A    between atoms: _344  and  _345
REMARK  155  A    between atoms: _347  and  _349
REMARK  156  A    between atoms: _349  and  _350
REMARK  157  A    between atoms: _349  and  _352
REMARK  158  A    between atoms: _352  and  _353
REMARK  159  A    between atoms: _359  and  _361
REMARK  160  A    between atoms: _361  and  _362
REMARK  161  A    between atoms: _361  and  _364
REMARK  162  A    between atoms: _364  and  _365
REMARK  163  A    between atoms: _370  and  _371
REMARK  164  A    between atoms: _373  and  _375
REMARK  165  A    between atoms: _375  and  _376
REMARK  166  A    between atoms: _375  and  _378
REMARK  167  A    between atoms: _378  and  _379
REMARK  168  A    between atoms: _382  and  _384
REMARK  169  A    between atoms: _384  and  _385
REMARK  170  A    between atoms: _384  and  _387
REMARK  171  A    between atoms: _387  and  _388
REMARK  172  A    between atoms: _388  and  _389
REMARK  173  A    between atoms: _389  and  _390
REMARK  174  A    between atoms: _390  and  _391
REMARK  175  A    between atoms: _396  and  _397
REMARK  176  A    between atoms: _402  and  _404
REMARK  177  A    between atoms: _404  and  _405
REMARK  178  A    between atoms: _404  and  _407
REMARK  179  A    between atoms: _407  and  _408
REMARK  180  A    between atoms: _408  and  _409
REMARK  181  A    between atoms: _412  and  _414
REMARK  182  A    between atoms: _414  and  _415
REMARK  183  A    between atoms: _414  and  _417
REMARK  184  A    between atoms: _417  and  _418
REMARK  185  A    between atoms: _423  and  _425
REMARK  186  A    between atoms: _425  and  _426
REMARK  187  A    between atoms: _425  and  _428
REMARK  188  A    between atoms: _428  and  _429
REMARK  189  A    between atoms: _432  and  _434
REMARK  190  A    between atoms: _434  and  _435
REMARK  191  A    between atoms: _434  and  _437
REMARK  192  A    between atoms: _437  and  _438
REMARK  193  A    between atoms: _441  and  _443
REMARK  194  A    between atoms: _443  and  _444
REMARK  195  A    between atoms: _443  and  _446
REMARK  196  A    between atoms: _446  and  _447
REMARK  197  A    between atoms: _450  and  _452
REMARK  198  A    between atoms: _452  and  _453
REMARK  199  A    between atoms: _452  and  _455
REMARK  200  A    between atoms: _455  and  _456
REMARK  201  A    between atoms: _459  and  _461
REMARK  202  A    between atoms: _461  and  _462
REMARK  203  A    between atoms: _461  and  _464
REMARK  204  A    between atoms: _464  and  _465
REMARK  205  A    between atoms: _465  and  _466
REMARK  206  A    between atoms: _471  and  _473
REMARK  207  A    between atoms: _473  and  _474
REMARK  208  A    between atoms: _473  and  _476
REMARK  209  A    between atoms: _479  and  _481
REMARK  210  A    between atoms: _481  and  _482
REMARK  211  A    between atoms: _481  and  _484
REMARK  212  A    between atoms: _484  and  _485
REMARK  213  A    between atoms: _488  and  _490
REMARK  214  A    between atoms: _490  and  _491
REMARK  215  A    between atoms: _490  and  _493
REMARK  216  A    between atoms: _493  and  _494
REMARK  217  A    between atoms: _497  and  _499
REMARK  218  A    between atoms: _499  and  _500
REMARK  219  A    between atoms: _499  and  _502
REMARK  220  A    between atoms: _502  and  _503
REMARK  221  A    between atoms: _509  and  _511
REMARK  222  A    between atoms: _511  and  _512
REMARK  223  A    between atoms: _514  and  _516
REMARK  224  A    between atoms: _516  and  _517
REMARK  225  A    between atoms: _516  and  _519
REMARK  226  A    between atoms: _519  and  _520
REMARK  227  A    between atoms: _523  and  _525
REMARK  228  A    between atoms: _525  and  _526
REMARK  229  A    between atoms: _525  and  _528
REMARK  230  A    between atoms: _528  and  _529
REMARK  231  A    between atoms: _534  and  _536
REMARK  232  A    between atoms: _536  and  _537
REMARK  233  A    between atoms: _536  and  _539
REMARK  234  A    between atoms: _539  and  _540
REMARK  235  A    between atoms: _546  and  _548
REMARK  236  A    between atoms: _548  and  _549
REMARK  237  A    between atoms: _548  and  _551
REMARK  238  A    between atoms: _551  and  _552
REMARK  239  A    between atoms: _555  and  _557
REMARK  240  A    between atoms: _557  and  _558
REMARK  241  A    between atoms: _557  and  _560
REMARK  242  A    between atoms: _560  and  _561
REMARK  243  A    between atoms: _566  and  _567
REMARK  244  A    between atoms: _569  and  _571
REMARK  245  A    between atoms: _571  and  _572
REMARK  246  A    between atoms: _571  and  _574
REMARK  247  A    between atoms: _574  and  _575
REMARK  248  A    between atoms: _575  and  _576
REMARK  249  A    between atoms: _576  and  _577
REMARK  250  A    between atoms: _586  and  _588
REMARK  251  A    between atoms: _588  and  _589
REMARK  252  A    between atoms: _588  and  _591
REMARK  253  A    between atoms: _591  and  _592
REMARK  254  A    between atoms: _592  and  _593
REMARK  255  A    between atoms: _593  and  _594
REMARK  256  A    between atoms: _603  and  _605
REMARK  257  A    between atoms: _605  and  _606
REMARK  258  A    between atoms: _605  and  _608
REMARK  259  A    between atoms: _608  and  _609
REMARK  260  A    between atoms: _614  and  _616
REMARK  261  A    between atoms: _616  and  _617
REMARK                            x       y       z     vdW  Elec       q    Type
REMARK                         _______ _______ _______ _____ _____    ______ ____
ROOT
ATOM      1  O   HOH     1       7.996   9.333  -4.738  0.00  0.00    +0.000 OA
ENDROOT
TORSDOF 0
REMARK  Name = ../refined-set-2016/1ydt/1ydt_pocket.pdb
REMARK  261 active torsions:
REMARK  status: ('A' for Active; 'I' for Inactive)
REMARK    1  A    between atoms: _1  and  _3
REMARK    2  A    between atoms: _3  and  _4
REMARK    3  A    between atoms: _3  and  _6
REMARK    4  A    between atoms: _6  and  _7
REMARK    5  A    between atoms: _7  and  _8
REMARK    6  A    between atoms: _8  and  _9
REMARK    7  A    between atoms: _9  and  _10
REMARK    8  A    between atoms: _14  and  _16
REMARK    9  A    between atoms: _16  and  _17
REMARK   10  A    between atoms: _16  and  _19
REMARK   11  A    between atoms: _19  and  _20
REMARK   12  A    between atoms: _23  and  _25
REMARK   13  A    between atoms: _25  and  _26
REMARK   14  A    between atoms: _25  and  _28
REMARK   15  A    between atoms: _28  and  _29
REMARK   16  A    between atoms: _32  and  _34
REMARK   17  A    between atoms: _34  and  _35
REMARK   18  A    between atoms: _37  and  _39
REMARK   19  A    between atoms: _39  and  _40
REMARK   20  A    between atoms: _39  and  _42
REMARK   21  A    between atoms: _42  and  _43
REMARK   22  A    between atoms: _46  and  _48
REMARK   23  A    between atoms: _48  and  _49
REMARK   24  A    between atoms: _51  and  _53
REMARK   25  A    between atoms: _53  and  _54
REMARK   26  A    between atoms: _53  and  _56
REMARK   27  A    between atoms: _56  and  _57
REMARK   28  A    between atoms: _59  and  _61
REMARK   29  A    between atoms: _61  and  _62
REMARK   30  A    between atoms: _61  and  _64
REMARK   31  A    between atoms: _64  and  _65
REMARK   32  A    between atoms: _71  and  _73
REMARK   33  A    between atoms: _73  and  _74
REMARK   34  A    between atoms: _76  and  _78
REMARK   35  A    between atoms: _78  and  _79
REMARK   36  A    between atoms: _78  and  _81
REMARK   37  A    between atoms: _81  and  _82
REMARK   38  A    between atoms: _82  and  _83
REMARK   39  A    between atoms: _83  and  _84
REMARK   40  A    between atoms: _93  and  _95
REMARK   41  A    between atoms: _95  and  _96
REMARK   42  A    between atoms: _95  and  _98
REMARK   43  A    between atoms: _101  and  _103
REMARK   44  A    between atoms: _103  and  _104
REMARK   45  A    between atoms: _103  and  _106
REMARK   46  A    between atoms: _106  and  _107
REMARK   47  A    between atoms: _107  and  _108
REMARK   48  A    between atoms: _110  and  _112
REMARK   49  A    between atoms: _112  and  _113
REMARK   50  A    between atoms: _112  and  _115
REMARK   51  A    between atoms: _115  and  _116
REMARK   52  A    between atoms: _119  and  _121
REMARK   53  A    between atoms: _121  and  _122
REMARK   54  A    between atoms: _121  and  _124
REMARK   55  A    between atoms: _124  and  _125
REMARK   56  A    between atoms: _130  and  _131
REMARK   57  A    between atoms: _133  and  _135
REMARK   58  A    between atoms: _135  and  _136
REMARK   59  A    between atoms: _139  and  _141
REMARK   60  A    between atoms: _141  and  _142
REMARK   61  A    between atoms: _141  and  _144
REMARK   62  A    between atoms: _144  and  _145
REMARK   63  A    between atoms: _145  and  _146
REMARK   64  A    between atoms: _148  and  _150
REMARK   65  A    between atoms: _150  and  _151
REMARK   66  A    between atoms: _150  and  _153
REMARK   67  A    between atoms: _153  and  _154
REMARK   68  A    between atoms: _154  and  _155
REMARK   69  A    between atoms: _155  and  _156
REMARK   70  A    between atoms: _156  and  _157
REMARK   71  A    between atoms: _161  and  _163
REMARK   72  A    between atoms: _163  and  _164
REMARK   73  A    between atoms: _163  and  _166
REMARK   74  A    between atoms: _166  and  _167
REMARK   75  A    between atoms: _170  and  _172
REMARK   76  A    between atoms: _172  and  _173
REMARK   77  A    between atoms: _172  and  _175
REMARK   78  A    between atoms: _175  and  _176
REMARK   79  A    between atoms: _179  and  _181
REMARK   80  A    between atoms: _181  and  _182
REMARK   81  A    between atoms: _181  and  _184
REMARK   82  A    between atoms: _184  and  _185
REMARK   83  A    between atoms: _188  and  _190
REMARK   84  A    between atoms: _190  and  _191
REMARK   85  A    between atoms: _190  and  _193
REMARK   86  A    between atoms: _196  and  _198
REMARK   87  A    between atoms: _198  and  _199
REMARK   88  A    between atoms: _198  and  _201
REMARK   89  A    between atoms: _201  and  _202
REMARK   90  A    between atoms: _205  and  _207
REMARK   91  A    between atoms: _207  and  _208
REMARK   92  A    between atoms: _207  and  _210
REMARK   93  A    between atoms: _210  and  _211
REMARK   94  A    between atoms: _211  and  _212
REMARK   95  A    between atoms: _215  and  _217
REMARK   96  A    between atoms: _217  and  _218
REMARK   97  A    between atoms: _217  and  _220
REMARK   98  A    between atoms: _220  and  _221
REMARK   99  A    between atoms: _224  and  _226
REMARK  100  A    between atoms: _226  and  _227
REMARK  101  A    between atoms: _226  and  _229
REMARK  102  A    between atoms: _232  and  _234
REMARK  103  A    between atoms: _234  and  _235
REMARK  104  A    between atoms: _234  and  _237
REMARK  105  A    between atoms: _237  and  _238
REMARK  106  A    between atoms: _238  and  _239
REMARK  107  A    between atoms: _239  and  _240
REMARK  108  A    between atoms: _240  and  _241
REMARK  109  A    between atoms: _245  and  _247
REMARK  110  A    between atoms: _247  and  _248
REMARK  111  A    between atoms: _247  and  _250
REMARK  112  A    between atoms: _250  and  _251
REMARK  113  A    between atoms: _254  and  _256
REMARK  114  A    between atoms: _256  and  _257
REMARK  115  A    between atoms: _256  and  _259
REMARK  116  A    between atoms: _259  and  _260
REMARK  117  A    between atoms: _260  and  _261
REMARK  118  A    between atoms: _263  and  _265
REMARK  119  A    between atoms: _265  and  _266
REMARK  120  A    between atoms: _265  and  _268
REMARK  121  A    between atoms: _271  and  _273
REMARK  122  A    between atoms: _273  and  _274
REMARK  123  A    between atoms: _273  and  _276
REMARK  124  A    between atoms: _276  and  _277
REMARK  125  A    between atoms: _277  and  _278
REMARK  126  A    between atoms: _280  and  _282
REMARK  127  A    between atoms: _282  and  _283
REMARK  128  A    between atoms: _282  and  _285
REMARK  129  A    between atoms: _285  and  _286
REMARK  130  A    between atoms: _286  and  _287
REMARK  131  A    between atoms: _290  and  _292
REMARK  132  A    between atoms: _292  and  _293
REMARK  133  A    between atoms: _292  and  _295
REMARK  134  A    between atoms: _295  and  _296
REMARK  135  A    between atoms: _301  and  _302
REMARK  136  A    between atoms: _304  and  _306
REMARK  137  A    between atoms: _306  and  _307
REMARK  138  A    between atoms: _306  and  _309
REMARK  139  A    between atoms: _312  and  _314
REMARK  140  A    between atoms: _314  and  _315
REMARK  141  A    between atoms: _318  and  _320
REMARK  142  A    between atoms: _320  and  _321
REMARK  143  A    between atoms: _323  and  _325
REMARK  144  A    between atoms: _325  and  _326
REMARK  145  A    between atoms: _328  and  _330
REMARK  146  A    between atoms: _330  and  _331
REMARK  147  A    between atoms: _330  and  _333
REMARK  148  A    between atoms: _333  and  _334
REMARK  149  A    between atoms: _334  and  _335
REMARK  150  A    between atoms: _338  and  _340
REMARK  151  A    between atoms: _340  and  _341
REMARK  152  A    between atoms: _340  and  _343
REMARK  153  A    between atoms: _343  and  _344
REMARK  154  A    between atoms: _344  and  _345
REMARK  155  A    between atoms: _347  and  _349
REMARK  156  A    between atoms: _349  and  _350
REMARK  157  A    between atoms: _349  and  _352
REMARK  158  A    between atoms: _352  and  _353
REMARK  159  A    between atoms: _359  and  _361
REMARK  160  A    between atoms: _361  and  _362
REMARK  161  A    between atoms: _361  and  _364
REMARK  162  A    between atoms: _364  and  _365
REMARK  163  A    between atoms: _370  and  _371
REMARK  164  A    between atoms: _373  and  _375
REMARK  165  A    between atoms: _375  and  _376
REMARK  166  A    between atoms: _375  and  _378
REMARK  167  A    between atoms: _378  and  _379
REMARK  168  A    between atoms: _382  and  _384
REMARK  169  A    between atoms: _384  and  _385
REMARK  170  A    between atoms: _384  and  _387
REMARK  171  A    between atoms: _387  and  _388
REMARK  172  A    between atoms: _388  and  _389
REMARK  173  A    between atoms: _389  and  _390
REMARK  174  A    between atoms: _390  and  _391
REMARK  175  A    between atoms: _396  and  _397
REMARK  176  A    between atoms: _402  and  _404
REMARK  177  A    between atoms: _404  and  _405
REMARK  178  A    between atoms: _404  and  _407
REMARK  179  A    between atoms: _407  and  _408
REMARK  180  A    between atoms: _408  and  _409
REMARK  181  A    between atoms: _412  and  _414
REMARK  182  A    between atoms: _414  and  _415
REMARK  183  A    between atoms: _414  and  _417
REMARK  184  A    between atoms: _417  and  _418
REMARK  185  A    between atoms: _423  and  _425
REMARK  186  A    between atoms: _425  and  _426
REMARK  187  A    between atoms: _425  and  _428
REMARK  188  A    between atoms: _428  and  _429
REMARK  189  A    between atoms: _432  and  _434
REMARK  190  A    between atoms: _434  and  _435
REMARK  191  A    between atoms: _434  and  _437
REMARK  192  A    between atoms: _437  and  _438
REMARK  193  A    between atoms: _441  and  _443
REMARK  194  A    between atoms: _443  and  _444
REMARK  195  A    between atoms: _443  and  _446
REMARK  196  A    between atoms: _446  and  _447
REMARK  197  A    between atoms: _450  and  _452
REMARK  198  A    between atoms: _452  and  _453
REMARK  199  A    between atoms: _452  and  _455
REMARK  200  A    between atoms: _455  and  _456
REMARK  201  A    between atoms: _459  and  _461
REMARK  202  A    between atoms: _461  and  _462
REMARK  203  A    between atoms: _461  and  _464
REMARK  204  A    between atoms: _464  and  _465
REMARK  205  A    between atoms: _465  and  _466
REMARK  206  A    between atoms: _471  and  _473
REMARK  207  A    between atoms: _473  and  _474
REMARK  208  A    between atoms: _473  and  _476
REMARK  209  A    between atoms: _479  and  _481
REMARK  210  A    between atoms: _481  and  _482
REMARK  211  A    between atoms: _481  and  _484
REMARK  212  A    between atoms: _484  and  _485
REMARK  213  A    between atoms: _488  and  _490
REMARK  214  A    between atoms: _490  and  _491
REMARK  215  A    between atoms: _490  and  _493
REMARK  216  A    between atoms: _493  and  _494
REMARK  217  A    between atoms: _497  and  _499
REMARK  218  A    between atoms: _499  and  _500
REMARK  219  A    between atoms: _499  and  _502
REMARK  220  A    between atoms: _502  and  _503
REMARK  221  A    between atoms: _509  and  _511
REMARK  222  A    between atoms: _511  and  _512
REMARK  223  A    between atoms: _514  and  _516
REMARK  224  A    between atoms: _516  and  _517
REMARK  225  A    between atoms: _516  and  _519
REMARK  226  A    between atoms: _519  and  _520
REMARK  227  A    between atoms: _523  and  _525
REMARK  228  A    between atoms: _525  and  _526
REMARK  229  A    between atoms: _525  and  _528
REMARK  230  A    between atoms: _528  and  _529
REMARK  231  A    between atoms: _534  and  _536
REMARK  232  A    between atoms: _536  and  _537
REMARK  233  A    between atoms: _536  and  _539
REMARK  234  A    between atoms: _539  and  _540
REMARK  235  A    between atoms: _546  and  _548
REMARK  236  A    between atoms: _548  and  _549
REMARK  237  A    between atoms: _548  and  _551
REMARK  238  A    between atoms: _551  and  _552
REMARK  239  A    between atoms: _555  and  _557
REMARK  240  A    between atoms: _557  and  _558
REMARK  241  A    between atoms: _557  and  _560
REMARK  242  A    between atoms: _560  and  _561
REMARK  243  A    between atoms: _566  and  _567
REMARK  244  A    between atoms: _569  and  _571
REMARK  245  A    between atoms: _571  and  _572
REMARK  246  A    between atoms: _571  and  _574
REMARK  247  A    between atoms: _574  and  _575
REMARK  248  A    between atoms: _575  and  _576
REMARK  249  A    between atoms: _576  and  _577
REMARK  250  A    between atoms: _586  and  _588
REMARK  251  A    between atoms: _588  and  _589
REMARK  252  A    between atoms: _588  and  _591
REMARK  253  A    between atoms: _591  and  _592
REMARK  254  A    between atoms: _592  and  _593
REMARK  255  A    between atoms: _593  and  _594
REMARK  256  A    between atoms: _603  and  _605
REMARK  257  A    between atoms: _605  and  _606
REMARK  258  A    between atoms: _605  and  _608
REMARK  259  A    between atoms: _608  and  _609
REMARK  260  A    between atoms: _614  and  _616
REMARK  261  A    between atoms: _616  and  _617
REMARK                            x       y       z     vdW  Elec       q    Type
REMARK                         _______ _______ _______ _____ _____    ______ ____
ROOT
ATOM      1  O   HOH     1      17.914   8.927   0.525  0.00  0.00    +0.000 OA
ENDROOT
TORSDOF 0
REMARK  Name = ../refined-set-2016/1ydt/1ydt_pocket.pdb
REMARK  261 active torsions:
REMARK  status: ('A' for Active; 'I' for Inactive)
REMARK    1  A    between atoms: _1  and  _3
REMARK    2  A    between atoms: _3  and  _4
REMARK    3  A    between atoms: _3  and  _6
REMARK    4  A    between atoms: _6  and  _7
REMARK    5  A    between atoms: _7  and  _8
REMARK    6  A    between atoms: _8  and  _9
REMARK    7  A    between atoms: _9  and  _10
REMARK    8  A    between atoms: _14  and  _16
REMARK    9  A    between atoms: _16  and  _17
REMARK   10  A    between atoms: _16  and  _19
REMARK   11  A    between atoms: _19  and  _20
REMARK   12  A    between atoms: _23  and  _25
REMARK   13  A    between atoms: _25  and  _26
REMARK   14  A    between atoms: _25  and  _28
REMARK   15  A    between atoms: _28  and  _29
REMARK   16  A    between atoms: _32  and  _34
REMARK   17  A    between atoms: _34  and  _35
REMARK   18  A    between atoms: _37  and  _39
REMARK   19  A    between atoms: _39  and  _40
REMARK   20  A    between atoms: _39  and  _42
REMARK   21  A    between atoms: _42  and  _43
REMARK   22  A    between atoms: _46  and  _48
REMARK   23  A    between atoms: _48  and  _49
REMARK   24  A    between atoms: _51  and  _53
REMARK   25  A    between atoms: _53  and  _54
REMARK   26  A    between atoms: _53  and  _56
REMARK   27  A    between atoms: _56  and  _57
REMARK   28  A    between atoms: _59  and  _61
REMARK   29  A    between atoms: _61  and  _62
REMARK   30  A    between atoms: _61  and  _64
REMARK   31  A    between atoms: _64  and  _65
REMARK   32  A    between atoms: _71  and  _73
REMARK   33  A    between atoms: _73  and  _74
REMARK   34  A    between atoms: _76  and  _78
REMARK   35  A    between atoms: _78  and  _79
REMARK   36  A    between atoms: _78  and  _81
REMARK   37  A    between atoms: _81  and  _82
REMARK   38  A    between atoms: _82  and  _83
REMARK   39  A    between atoms: _83  and  _84
REMARK   40  A    between atoms: _93  and  _95
REMARK   41  A    between atoms: _95  and  _96
REMARK   42  A    between atoms: _95  and  _98
REMARK   43  A    between atoms: _101  and  _103
REMARK   44  A    between atoms: _103  and  _104
REMARK   45  A    between atoms: _103  and  _106
REMARK   46  A    between atoms: _106  and  _107
REMARK   47  A    between atoms: _107  and  _108
REMARK   48  A    between atoms: _110  and  _112
REMARK   49  A    between atoms: _112  and  _113
REMARK   50  A    between atoms: _112  and  _115
REMARK   51  A    between atoms: _115  and  _116
REMARK   52  A    between atoms: _119  and  _121
REMARK   53  A    between atoms: _121  and  _122
REMARK   54  A    between atoms: _121  and  _124
REMARK   55  A    between atoms: _124  and  _125
REMARK   56  A    between atoms: _130  and  _131
REMARK   57  A    between atoms: _133  and  _135
REMARK   58  A    between atoms: _135  and  _136
REMARK   59  A    between atoms: _139  and  _141
REMARK   60  A    between atoms: _141  and  _142
REMARK   61  A    between atoms: _141  and  _144
REMARK   62  A    between atoms: _144  and  _145
REMARK   63  A    between atoms: _145  and  _146
REMARK   64  A    between atoms: _148  and  _150
REMARK   65  A    between atoms: _150  and  _151
REMARK   66  A    between atoms: _150  and  _153
REMARK   67  A    between atoms: _153  and  _154
REMARK   68  A    between atoms: _154  and  _155
REMARK   69  A    between atoms: _155  and  _156
REMARK   70  A    between atoms: _156  and  _157
REMARK   71  A    between atoms: _161  and  _163
REMARK   72  A    between atoms: _163  and  _164
REMARK   73  A    between atoms: _163  and  _166
REMARK   74  A    between atoms: _166  and  _167
REMARK   75  A    between atoms: _170  and  _172
REMARK   76  A    between atoms: _172  and  _173
REMARK   77  A    between atoms: _172  and  _175
REMARK   78  A    between atoms: _175  and  _176
REMARK   79  A    between atoms: _179  and  _181
REMARK   80  A    between atoms: _181  and  _182
REMARK   81  A    between atoms: _181  and  _184
REMARK   82  A    between atoms: _184  and  _185
REMARK   83  A    between atoms: _188  and  _190
REMARK   84  A    between atoms: _190  and  _191
REMARK   85  A    between atoms: _190  and  _193
REMARK   86  A    between atoms: _196  and  _198
REMARK   87  A    between atoms: _198  and  _199
REMARK   88  A    between atoms: _198  and  _201
REMARK   89  A    between atoms: _201  and  _202
REMARK   90  A    between atoms: _205  and  _207
REMARK   91  A    between atoms: _207  and  _208
REMARK   92  A    between atoms: _207  and  _210
REMARK   93  A    between atoms: _210  and  _211
REMARK   94  A    between atoms: _211  and  _212
REMARK   95  A    between atoms: _215  and  _217
REMARK   96  A    between atoms: _217  and  _218
REMARK   97  A    between atoms: _217  and  _220
REMARK   98  A    between atoms: _220  and  _221
REMARK   99  A    between atoms: _224  and  _226
REMARK  100  A    between atoms: _226  and  _227
REMARK  101  A    between atoms: _226  and  _229
REMARK  102  A    between atoms: _232  and  _234
REMARK  103  A    between atoms: _234  and  _235
REMARK  104  A    between atoms: _234  and  _237
REMARK  105  A    between atoms: _237  and  _238
REMARK  106  A    between atoms: _238  and  _239
REMARK  107  A    between atoms: _239  and  _240
REMARK  108  A    between atoms: _240  and  _241
REMARK  109  A    between atoms: _245  and  _247
REMARK  110  A    between atoms: _247  and  _248
REMARK  111  A    between atoms: _247  and  _250
REMARK  112  A    between atoms: _250  and  _251
REMARK  113  A    between atoms: _254  and  _256
REMARK  114  A    between atoms: _256  and  _257
REMARK  115  A    between atoms: _256  and  _259
REMARK  116  A    between atoms: _259  and  _260
REMARK  117  A    between atoms: _260  and  _261
REMARK  118  A    between atoms: _263  and  _265
REMARK  119  A    between atoms: _265  and  _266
REMARK  120  A    between atoms: _265  and  _268
REMARK  121  A    between atoms: _271  and  _273
REMARK  122  A    between atoms: _273  and  _274
REMARK  123  A    between atoms: _273  and  _276
REMARK  124  A    between atoms: _276  and  _277
REMARK  125  A    between atoms: _277  and  _278
REMARK  126  A    between atoms: _280  and  _282
REMARK  127  A    between atoms: _282  and  _283
REMARK  128  A    between atoms: _282  and  _285
REMARK  129  A    between atoms: _285  and  _286
REMARK  130  A    between atoms: _286  and  _287
REMARK  131  A    between atoms: _290  and  _292
REMARK  132  A    between atoms: _292  and  _293
REMARK  133  A    between atoms: _292  and  _295
REMARK  134  A    between atoms: _295  and  _296
REMARK  135  A    between atoms: _301  and  _302
REMARK  136  A    between atoms: _304  and  _306
REMARK  137  A    between atoms: _306  and  _307
REMARK  138  A    between atoms: _306  and  _309
REMARK  139  A    between atoms: _312  and  _314
REMARK  140  A    between atoms: _314  and  _315
REMARK  141  A    between atoms: _318  and  _320
REMARK  142  A    between atoms: _320  and  _321
REMARK  143  A    between atoms: _323  and  _325
REMARK  144  A    between atoms: _325  and  _326
REMARK  145  A    between atoms: _328  and  _330
REMARK  146  A    between atoms: _330  and  _331
REMARK  147  A    between atoms: _330  and  _333
REMARK  148  A    between atoms: _333  and  _334
REMARK  149  A    between atoms: _334  and  _335
REMARK  150  A    between atoms: _338  and  _340
REMARK  151  A    between atoms: _340  and  _341
REMARK  152  A    between atoms: _340  and  _343
REMARK  153  A    between atoms: _343  and  _344
REMARK  154  A    between atoms: _344  and  _345
REMARK  155  A    between atoms: _347  and  _349
REMARK  156  A    between atoms: _349  and  _350
REMARK  157  A    between atoms: _349  and  _352
REMARK  158  A    between atoms: _352  and  _353
REMARK  159  A    between atoms: _359  and  _361
REMARK  160  A    between atoms: _361  and  _362
REMARK  161  A    between atoms: _361  and  _364
REMARK  162  A    between atoms: _364  and  _365
REMARK  163  A    between atoms: _370  and  _371
REMARK  164  A    between atoms: _373  and  _375
REMARK  165  A    between atoms: _375  and  _376
REMARK  166  A    between atoms: _375  and  _378
REMARK  167  A    between atoms: _378  and  _379
REMARK  168  A    between atoms: _382  and  _384
REMARK  169  A    between atoms: _384  and  _385
REMARK  170  A    between atoms: _384  and  _387
REMARK  171  A    between atoms: _387  and  _388
REMARK  172  A    between atoms: _388  and  _389
REMARK  173  A    between atoms: _389  and  _390
REMARK  174  A    between atoms: _390  and  _391
REMARK  175  A    between atoms: _396  and  _397
REMARK  176  A    between atoms: _402  and  _404
REMARK  177  A    between atoms: _404  and  _405
REMARK  178  A    between atoms: _404  and  _407
REMARK  179  A    between atoms: _407  and  _408
REMARK  180  A    between atoms: _408  and  _409
REMARK  181  A    between atoms: _412  and  _414
REMARK  182  A    between atoms: _414  and  _415
REMARK  183  A    between atoms: _414  and  _417
REMARK  184  A    between atoms: _417  and  _418
REMARK  185  A    between atoms: _423  and  _425
REMARK  186  A    between atoms: _425  and  _426
REMARK  187  A    between atoms: _425  and  _428
REMARK  188  A    between atoms: _428  and  _429
REMARK  189  A    between atoms: _432  and  _434
REMARK  190  A    between atoms: _434  and  _435
REMARK  191  A    between atoms: _434  and  _437
REMARK  192  A    between atoms: _437  and  _438
REMARK  193  A    between atoms: _441  and  _443
REMARK  194  A    between atoms: _443  and  _444
REMARK  195  A    between atoms: _443  and  _446
REMARK  196  A    between atoms: _446  and  _447
REMARK  197  A    between atoms: _450  and  _452
REMARK  198  A    between atoms: _452  and  _453
REMARK  199  A    between atoms: _452  and  _455
REMARK  200  A    between atoms: _455  and  _456
REMARK  201  A    between atoms: _459  and  _461
REMARK  202  A    between atoms: _461  and  _462
REMARK  203  A    between atoms: _461  and  _464
REMARK  204  A    between atoms: _464  and  _465
REMARK  205  A    between atoms: _465  and  _466
REMARK  206  A    between atoms: _471  and  _473
REMARK  207  A    between atoms: _473  and  _474
REMARK  208  A    between atoms: _473  and  _476
REMARK  209  A    between atoms: _479  and  _481
REMARK  210  A    between atoms: _481  and  _482
REMARK  211  A    between atoms: _481  and  _484
REMARK  212  A    between atoms: _484  and  _485
REMARK  213  A    between atoms: _488  and  _490
REMARK  214  A    between atoms: _490  and  _491
REMARK  215  A    between atoms: _490  and  _493
REMARK  216  A    between atoms: _493  and  _494
REMARK  217  A    between atoms: _497  and  _499
REMARK  218  A    between atoms: _499  and  _500
REMARK  219  A    between atoms: _499  and  _502
REMARK  220  A    between atoms: _502  and  _503
REMARK  221  A    between atoms: _509  and  _511
REMARK  222  A    between atoms: _511  and  _512
REMARK  223  A    between atoms: _514  and  _516
REMARK  224  A    between atoms: _516  and  _517
REMARK  225  A    between atoms: _516  and  _519
REMARK  226  A    between atoms: _519  and  _520
REMARK  227  A    between atoms: _523  and  _525
REMARK  228  A    between atoms: _525  and  _526
REMARK  229  A    between atoms: _525  and  _528
REMARK  230  A    between atoms: _528  and  _529
REMARK  231  A    between atoms: _534  and  _536
REMARK  232  A    between atoms: _536  and  _537
REMARK  233  A    between atoms: _536  and  _539
REMARK  234  A    between atoms: _539  and  _540
REMARK  235  A    between atoms: _546  and  _548
REMARK  236  A    between atoms: _548  and  _549
REMARK  237  A    between atoms: _548  and  _551
REMARK  238  A    between atoms: _551  and  _552
REMARK  239  A    between atoms: _555  and  _557
REMARK  240  A    between atoms: _557  and  _558
REMARK  241  A    between atoms: _557  and  _560
REMARK  242  A    between atoms: _560  and  _561
REMARK  243  A    between atoms: _566  and  _567
REMARK  244  A    between atoms: _569  and  _571
REMARK  245  A    between atoms: _571  and  _572
REMARK  246  A    between atoms: _571  and  _574
REMARK  247  A    between atoms: _574  and  _575
REMARK  248  A    between atoms: _575  and  _576
REMARK  249  A    between atoms: _576  and  _577
REMARK  250  A    between atoms: _586  and  _588
REMARK  251  A    between atoms: _588  and  _589
REMARK  252  A    between atoms: _588  and  _591
REMARK  253  A    between atoms: _591  and  _592
REMARK  254  A    between atoms: _592  and  _593
REMARK  255  A    between atoms: _593  and  _594
REMARK  256  A    between atoms: _603  and  _605
REMARK  257  A    between atoms: _605  and  _606
REMARK  258  A    between atoms: _605  and  _608
REMARK  259  A    between atoms: _608  and  _609
REMARK  260  A    between atoms: _614  and  _616
REMARK  261  A    between atoms: _616  and  _617
REMARK                            x       y       z     vdW  Elec       q    Type
REMARK                         _______ _______ _______ _____ _____    ______ ____
ROOT
ATOM      1  O   HOH     1      15.948   6.657  -0.552  0.00  0.00    +0.000 OA
ENDROOT
TORSDOF 0
REMARK  Name = ../refined-set-2016/1ydt/1ydt_pocket.pdb
REMARK  261 active torsions:
REMARK  status: ('A' for Active; 'I' for Inactive)
REMARK    1  A    between atoms: _1  and  _3
REMARK    2  A    between atoms: _3  and  _4
REMARK    3  A    between atoms: _3  and  _6
REMARK    4  A    between atoms: _6  and  _7
REMARK    5  A    between atoms: _7  and  _8
REMARK    6  A    between atoms: _8  and  _9
REMARK    7  A    between atoms: _9  and  _10
REMARK    8  A    between atoms: _14  and  _16
REMARK    9  A    between atoms: _16  and  _17
REMARK   10  A    between atoms: _16  and  _19
REMARK   11  A    between atoms: _19  and  _20
REMARK   12  A    between atoms: _23  and  _25
REMARK   13  A    between atoms: _25  and  _26
REMARK   14  A    between atoms: _25  and  _28
REMARK   15  A    between atoms: _28  and  _29
REMARK   16  A    between atoms: _32  and  _34
REMARK   17  A    between atoms: _34  and  _35
REMARK   18  A    between atoms: _37  and  _39
REMARK   19  A    between atoms: _39  and  _40
REMARK   20  A    between atoms: _39  and  _42
REMARK   21  A    between atoms: _42  and  _43
REMARK   22  A    between atoms: _46  and  _48
REMARK   23  A    between atoms: _48  and  _49
REMARK   24  A    between atoms: _51  and  _53
REMARK   25  A    between atoms: _53  and  _54
REMARK   26  A    between atoms: _53  and  _56
REMARK   27  A    between atoms: _56  and  _57
REMARK   28  A    between atoms: _59  and  _61
REMARK   29  A    between atoms: _61  and  _62
REMARK   30  A    between atoms: _61  and  _64
REMARK   31  A    between atoms: _64  and  _65
REMARK   32  A    between atoms: _71  and  _73
REMARK   33  A    between atoms: _73  and  _74
REMARK   34  A    between atoms: _76  and  _78
REMARK   35  A    between atoms: _78  and  _79
REMARK   36  A    between atoms: _78  and  _81
REMARK   37  A    between atoms: _81  and  _82
REMARK   38  A    between atoms: _82  and  _83
REMARK   39  A    between atoms: _83  and  _84
REMARK   40  A    between atoms: _93  and  _95
REMARK   41  A    between atoms: _95  and  _96
REMARK   42  A    between atoms: _95  and  _98
REMARK   43  A    between atoms: _101  and  _103
REMARK   44  A    between atoms: _103  and  _104
REMARK   45  A    between atoms: _103  and  _106
REMARK   46  A    between atoms: _106  and  _107
REMARK   47  A    between atoms: _107  and  _108
REMARK   48  A    between atoms: _110  and  _112
REMARK   49  A    between atoms: _112  and  _113
REMARK   50  A    between atoms: _112  and  _115
REMARK   51  A    between atoms: _115  and  _116
REMARK   52  A    between atoms: _119  and  _121
REMARK   53  A    between atoms: _121  and  _122
REMARK   54  A    between atoms: _121  and  _124
REMARK   55  A    between atoms: _124  and  _125
REMARK   56  A    between atoms: _130  and  _131
REMARK   57  A    between atoms: _133  and  _135
REMARK   58  A    between atoms: _135  and  _136
REMARK   59  A    between atoms: _139  and  _141
REMARK   60  A    between atoms: _141  and  _142
REMARK   61  A    between atoms: _141  and  _144
REMARK   62  A    between atoms: _144  and  _145
REMARK   63  A    between atoms: _145  and  _146
REMARK   64  A    between atoms: _148  and  _150
REMARK   65  A    between atoms: _150  and  _151
REMARK   66  A    between atoms: _150  and  _153
REMARK   67  A    between atoms: _153  and  _154
REMARK   68  A    between atoms: _154  and  _155
REMARK   69  A    between atoms: _155  and  _156
REMARK   70  A    between atoms: _156  and  _157
REMARK   71  A    between atoms: _161  and  _163
REMARK   72  A    between atoms: _163  and  _164
REMARK   73  A    between atoms: _163  and  _166
REMARK   74  A    between atoms: _166  and  _167
REMARK   75  A    between atoms: _170  and  _172
REMARK   76  A    between atoms: _172  and  _173
REMARK   77  A    between atoms: _172  and  _175
REMARK   78  A    between atoms: _175  and  _176
REMARK   79  A    between atoms: _179  and  _181
REMARK   80  A    between atoms: _181  and  _182
REMARK   81  A    between atoms: _181  and  _184
REMARK   82  A    between atoms: _184  and  _185
REMARK   83  A    between atoms: _188  and  _190
REMARK   84  A    between atoms: _190  and  _191
REMARK   85  A    between atoms: _190  and  _193
REMARK   86  A    between atoms: _196  and  _198
REMARK   87  A    between atoms: _198  and  _199
REMARK   88  A    between atoms: _198  and  _201
REMARK   89  A    between atoms: _201  and  _202
REMARK   90  A    between atoms: _205  and  _207
REMARK   91  A    between atoms: _207  and  _208
REMARK   92  A    between atoms: _207  and  _210
REMARK   93  A    between atoms: _210  and  _211
REMARK   94  A    between atoms: _211  and  _212
REMARK   95  A    between atoms: _215  and  _217
REMARK   96  A    between atoms: _217  and  _218
REMARK   97  A    between atoms: _217  and  _220
REMARK   98  A    between atoms: _220  and  _221
REMARK   99  A    between atoms: _224  and  _226
REMARK  100  A    between atoms: _226  and  _227
REMARK  101  A    between atoms: _226  and  _229
REMARK  102  A    between atoms: _232  and  _234
REMARK  103  A    between atoms: _234  and  _235
REMARK  104  A    between atoms: _234  and  _237
REMARK  105  A    between atoms: _237  and  _238
REMARK  106  A    between atoms: _238  and  _239
REMARK  107  A    between atoms: _239  and  _240
REMARK  108  A    between atoms: _240  and  _241
REMARK  109  A    between atoms: _245  and  _247
REMARK  110  A    between atoms: _247  and  _248
REMARK  111  A    between atoms: _247  and  _250
REMARK  112  A    between atoms: _250  and  _251
REMARK  113  A    between atoms: _254  and  _256
REMARK  114  A    between atoms: _256  and  _257
REMARK  115  A    between atoms: _256  and  _259
REMARK  116  A    between atoms: _259  and  _260
REMARK  117  A    between atoms: _260  and  _261
REMARK  118  A    between atoms: _263  and  _265
REMARK  119  A    between atoms: _265  and  _266
REMARK  120  A    between atoms: _265  and  _268
REMARK  121  A    between atoms: _271  and  _273
REMARK  122  A    between atoms: _273  and  _274
REMARK  123  A    between atoms: _273  and  _276
REMARK  124  A    between atoms: _276  and  _277
REMARK  125  A    between atoms: _277  and  _278
REMARK  126  A    between atoms: _280  and  _282
REMARK  127  A    between atoms: _282  and  _283
REMARK  128  A    between atoms: _282  and  _285
REMARK  129  A    between atoms: _285  and  _286
REMARK  130  A    between atoms: _286  and  _287
REMARK  131  A    between atoms: _290  and  _292
REMARK  132  A    between atoms: _292  and  _293
REMARK  133  A    between atoms: _292  and  _295
REMARK  134  A    between atoms: _295  and  _296
REMARK  135  A    between atoms: _301  and  _302
REMARK  136  A    between atoms: _304  and  _306
REMARK  137  A    between atoms: _306  and  _307
REMARK  138  A    between atoms: _306  and  _309
REMARK  139  A    between atoms: _312  and  _314
REMARK  140  A    between atoms: _314  and  _315
REMARK  141  A    between atoms: _318  and  _320
REMARK  142  A    between atoms: _320  and  _321
REMARK  143  A    between atoms: _323  and  _325
REMARK  144  A    between atoms: _325  and  _326
REMARK  145  A    between atoms: _328  and  _330
REMARK  146  A    between atoms: _330  and  _331
REMARK  147  A    between atoms: _330  and  _333
REMARK  148  A    between atoms: _333  and  _334
REMARK  149  A    between atoms: _334  and  _335
REMARK  150  A    between atoms: _338  and  _340
REMARK  151  A    between atoms: _340  and  _341
REMARK  152  A    between atoms: _340  and  _343
REMARK  153  A    between atoms: _343  and  _344
REMARK  154  A    between atoms: _344  and  _345
REMARK  155  A    between atoms: _347  and  _349
REMARK  156  A    between atoms: _349  and  _350
REMARK  157  A    between atoms: _349  and  _352
REMARK  158  A    between atoms: _352  and  _353
REMARK  159  A    between atoms: _359  and  _361
REMARK  160  A    between atoms: _361  and  _362
REMARK  161  A    between atoms: _361  and  _364
REMARK  162  A    between atoms: _364  and  _365
REMARK  163  A    between atoms: _370  and  _371
REMARK  164  A    between atoms: _373  and  _375
REMARK  165  A    between atoms: _375  and  _376
REMARK  166  A    between atoms: _375  and  _378
REMARK  167  A    between atoms: _378  and  _379
REMARK  168  A    between atoms: _382  and  _384
REMARK  169  A    between atoms: _384  and  _385
REMARK  170  A    between atoms: _384  and  _387
REMARK  171  A    between atoms: _387  and  _388
REMARK  172  A    between atoms: _388  and  _389
REMARK  173  A    between atoms: _389  and  _390
REMARK  174  A    between atoms: _390  and  _391
REMARK  175  A    between atoms: _396  and  _397
REMARK  176  A    between atoms: _402  and  _404
REMARK  177  A    between atoms: _404  and  _405
REMARK  178  A    between atoms: _404  and  _407
REMARK  179  A    between atoms: _407  and  _408
REMARK  180  A    between atoms: _408  and  _409
REMARK  181  A    between atoms: _412  and  _414
REMARK  182  A    between atoms: _414  and  _415
REMARK  183  A    between atoms: _414  and  _417
REMARK  184  A    between atoms: _417  and  _418
REMARK  185  A    between atoms: _423  and  _425
REMARK  186  A    between atoms: _425  and  _426
REMARK  187  A    between atoms: _425  and  _428
REMARK  188  A    between atoms: _428  and  _429
REMARK  189  A    between atoms: _432  and  _434
REMARK  190  A    between atoms: _434  and  _435
REMARK  191  A    between atoms: _434  and  _437
REMARK  192  A    between atoms: _437  and  _438
REMARK  193  A    between atoms: _441  and  _443
REMARK  194  A    between atoms: _443  and  _444
REMARK  195  A    between atoms: _443  and  _446
REMARK  196  A    between atoms: _446  and  _447
REMARK  197  A    between atoms: _450  and  _452
REMARK  198  A    between atoms: _452  and  _453
REMARK  199  A    between atoms: _452  and  _455
REMARK  200  A    between atoms: _455  and  _456
REMARK  201  A    between atoms: _459  and  _461
REMARK  202  A    between atoms: _461  and  _462
REMARK  203  A    between atoms: _461  and  _464
REMARK  204  A    between atoms: _464  and  _465
REMARK  205  A    between atoms: _465  and  _466
REMARK  206  A    between atoms: _471  and  _473
REMARK  207  A    between atoms: _473  and  _474
REMARK  208  A    between atoms: _473  and  _476
REMARK  209  A    between atoms: _479  and  _481
REMARK  210  A    between atoms: _481  and  _482
REMARK  211  A    between atoms: _481  and  _484
REMARK  212  A    between atoms: _484  and  _485
REMARK  213  A    between atoms: _488  and  _490
REMARK  214  A    between atoms: _490  and  _491
REMARK  215  A    between atoms: _490  and  _493
REMARK  216  A    between atoms: _493  and  _494
REMARK  217  A    between atoms: _497  and  _499
REMARK  218  A    between atoms: _499  and  _500
REMARK  219  A    between atoms: _499  and  _502
REMARK  220  A    between atoms: _502  and  _503
REMARK  221  A    between atoms: _509  and  _511
REMARK  222  A    between atoms: _511  and  _512
REMARK  223  A    between atoms: _514  and  _516
REMARK  224  A    between atoms: _516  and  _517
REMARK  225  A    between atoms: _516  and  _519
REMARK  226  A    between atoms: _519  and  _520
REMARK  227  A    between atoms: _523  and  _525
REMARK  228  A    between atoms: _525  and  _526
REMARK  229  A    between atoms: _525  and  _528
REMARK  230  A    between atoms: _528  and  _529
REMARK  231  A    between atoms: _534  and  _536
REMARK  232  A    between atoms: _536  and  _537
REMARK  233  A    between atoms: _536  and  _539
REMARK  234  A    between atoms: _539  and  _540
REMARK  235  A    between atoms: _546  and  _548
REMARK  236  A    between atoms: _548  and  _549
REMARK  237  A    between atoms: _548  and  _551
REMARK  238  A    between atoms: _551  and  _552
REMARK  239  A    between atoms: _555  and  _557
REMARK  240  A    between atoms: _557  and  _558
REMARK  241  A    between atoms: _557  and  _560
REMARK  242  A    between atoms: _560  and  _561
REMARK  243  A    between atoms: _566  and  _567
REMARK  244  A    between atoms: _569  and  _571
REMARK  245  A    between atoms: _571  and  _572
REMARK  246  A    between atoms: _571  and  _574
REMARK  247  A    between atoms: _574  and  _575
REMARK  248  A    between atoms: _575  and  _576
REMARK  249  A    between atoms: _576  and  _577
REMARK  250  A    between atoms: _586  and  _588
REMARK  251  A    between atoms: _588  and  _589
REMARK  252  A    between atoms: _588  and  _591
REMARK  253  A    between atoms: _591  and  _592
REMARK  254  A    between atoms: _592  and  _593
REMARK  255  A    between atoms: _593  and  _594
REMARK  256  A    between atoms: _603  and  _605
REMARK  257  A    between atoms: _605  and  _606
REMARK  258  A    between atoms: _605  and  _608
REMARK  259  A    between atoms: _608  and  _609
REMARK  260  A    between atoms: _614  and  _616
REMARK  261  A    between atoms: _616  and  _617
REMARK                            x       y       z     vdW  Elec       q    Type
REMARK                         _______ _______ _______ _____ _____    ______ ____
ROOT
ATOM      1  O   HOH     1      10.478   9.600  -0.812  0.00  0.00    +0.000 OA
ENDROOT
TORSDOF 0
REMARK  Name = ../refined-set-2016/1ydt/1ydt_pocket.pdb
REMARK  261 active torsions:
REMARK  status: ('A' for Active; 'I' for Inactive)
REMARK    1  A    between atoms: _1  and  _3
REMARK    2  A    between atoms: _3  and  _4
REMARK    3  A    between atoms: _3  and  _6
REMARK    4  A    between atoms: _6  and  _7
REMARK    5  A    between atoms: _7  and  _8
REMARK    6  A    between atoms: _8  and  _9
REMARK    7  A    between atoms: _9  and  _10
REMARK    8  A    between atoms: _14  and  _16
REMARK    9  A    between atoms: _16  and  _17
REMARK   10  A    between atoms: _16  and  _19
REMARK   11  A    between atoms: _19  and  _20
REMARK   12  A    between atoms: _23  and  _25
REMARK   13  A    between atoms: _25  and  _26
REMARK   14  A    between atoms: _25  and  _28
REMARK   15  A    between atoms: _28  and  _29
REMARK   16  A    between atoms: _32  and  _34
REMARK   17  A    between atoms: _34  and  _35
REMARK   18  A    between atoms: _37  and  _39
REMARK   19  A    between atoms: _39  and  _40
REMARK   20  A    between atoms: _39  and  _42
REMARK   21  A    between atoms: _42  and  _43
REMARK   22  A    between atoms: _46  and  _48
REMARK   23  A    between atoms: _48  and  _49
REMARK   24  A    between atoms: _51  and  _53
REMARK   25  A    between atoms: _53  and  _54
REMARK   26  A    between atoms: _53  and  _56
REMARK   27  A    between atoms: _56  and  _57
REMARK   28  A    between atoms: _59  and  _61
REMARK   29  A    between atoms: _61  and  _62
REMARK   30  A    between atoms: _61  and  _64
REMARK   31  A    between atoms: _64  and  _65
REMARK   32  A    between atoms: _71  and  _73
REMARK   33  A    between atoms: _73  and  _74
REMARK   34  A    between atoms: _76  and  _78
REMARK   35  A    between atoms: _78  and  _79
REMARK   36  A    between atoms: _78  and  _81
REMARK   37  A    between atoms: _81  and  _82
REMARK   38  A    between atoms: _82  and  _83
REMARK   39  A    between atoms: _83  and  _84
REMARK   40  A    between atoms: _93  and  _95
REMARK   41  A    between atoms: _95  and  _96
REMARK   42  A    between atoms: _95  and  _98
REMARK   43  A    between atoms: _101  and  _103
REMARK   44  A    between atoms: _103  and  _104
REMARK   45  A    between atoms: _103  and  _106
REMARK   46  A    between atoms: _106  and  _107
REMARK   47  A    between atoms: _107  and  _108
REMARK   48  A    between atoms: _110  and  _112
REMARK   49  A    between atoms: _112  and  _113
REMARK   50  A    between atoms: _112  and  _115
REMARK   51  A    between atoms: _115  and  _116
REMARK   52  A    between atoms: _119  and  _121
REMARK   53  A    between atoms: _121  and  _122
REMARK   54  A    between atoms: _121  and  _124
REMARK   55  A    between atoms: _124  and  _125
REMARK   56  A    between atoms: _130  and  _131
REMARK   57  A    between atoms: _133  and  _135
REMARK   58  A    between atoms: _135  and  _136
REMARK   59  A    between atoms: _139  and  _141
REMARK   60  A    between atoms: _141  and  _142
REMARK   61  A    between atoms: _141  and  _144
REMARK   62  A    between atoms: _144  and  _145
REMARK   63  A    between atoms: _145  and  _146
REMARK   64  A    between atoms: _148  and  _150
REMARK   65  A    between atoms: _150  and  _151
REMARK   66  A    between atoms: _150  and  _153
REMARK   67  A    between atoms: _153  and  _154
REMARK   68  A    between atoms: _154  and  _155
REMARK   69  A    between atoms: _155  and  _156
REMARK   70  A    between atoms: _156  and  _157
REMARK   71  A    between atoms: _161  and  _163
REMARK   72  A    between atoms: _163  and  _164
REMARK   73  A    between atoms: _163  and  _166
REMARK   74  A    between atoms: _166  and  _167
REMARK   75  A    between atoms: _170  and  _172
REMARK   76  A    between atoms: _172  and  _173
REMARK   77  A    between atoms: _172  and  _175
REMARK   78  A    between atoms: _175  and  _176
REMARK   79  A    between atoms: _179  and  _181
REMARK   80  A    between atoms: _181  and  _182
REMARK   81  A    between atoms: _181  and  _184
REMARK   82  A    between atoms: _184  and  _185
REMARK   83  A    between atoms: _188  and  _190
REMARK   84  A    between atoms: _190  and  _191
REMARK   85  A    between atoms: _190  and  _193
REMARK   86  A    between atoms: _196  and  _198
REMARK   87  A    between atoms: _198  and  _199
REMARK   88  A    between atoms: _198  and  _201
REMARK   89  A    between atoms: _201  and  _202
REMARK   90  A    between atoms: _205  and  _207
REMARK   91  A    between atoms: _207  and  _208
REMARK   92  A    between atoms: _207  and  _210
REMARK   93  A    between atoms: _210  and  _211
REMARK   94  A    between atoms: _211  and  _212
REMARK   95  A    between atoms: _215  and  _217
REMARK   96  A    between atoms: _217  and  _218
REMARK   97  A    between atoms: _217  and  _220
REMARK   98  A    between atoms: _220  and  _221
REMARK   99  A    between atoms: _224  and  _226
REMARK  100  A    between atoms: _226  and  _227
REMARK  101  A    between atoms: _226  and  _229
REMARK  102  A    between atoms: _232  and  _234
REMARK  103  A    between atoms: _234  and  _235
REMARK  104  A    between atoms: _234  and  _237
REMARK  105  A    between atoms: _237  and  _238
REMARK  106  A    between atoms: _238  and  _239
REMARK  107  A    between atoms: _239  and  _240
REMARK  108  A    between atoms: _240  and  _241
REMARK  109  A    between atoms: _245  and  _247
REMARK  110  A    between atoms: _247  and  _248
REMARK  111  A    between atoms: _247  and  _250
REMARK  112  A    between atoms: _250  and  _251
REMARK  113  A    between atoms: _254  and  _256
REMARK  114  A    between atoms: _256  and  _257
REMARK  115  A    between atoms: _256  and  _259
REMARK  116  A    between atoms: _259  and  _260
REMARK  117  A    between atoms: _260  and  _261
REMARK  118  A    between atoms: _263  and  _265
REMARK  119  A    between atoms: _265  and  _266
REMARK  120  A    between atoms: _265  and  _268
REMARK  121  A    between atoms: _271  and  _273
REMARK  122  A    between atoms: _273  and  _274
REMARK  123  A    between atoms: _273  and  _276
REMARK  124  A    between atoms: _276  and  _277
REMARK  125  A    between atoms: _277  and  _278
REMARK  126  A    between atoms: _280  and  _282
REMARK  127  A    between atoms: _282  and  _283
REMARK  128  A    between atoms: _282  and  _285
REMARK  129  A    between atoms: _285  and  _286
REMARK  130  A    between atoms: _286  and  _287
REMARK  131  A    between atoms: _290  and  _292
REMARK  132  A    between atoms: _292  and  _293
REMARK  133  A    between atoms: _292  and  _295
REMARK  134  A    between atoms: _295  and  _296
REMARK  135  A    between atoms: _301  and  _302
REMARK  136  A    between atoms: _304  and  _306
REMARK  137  A    between atoms: _306  and  _307
REMARK  138  A    between atoms: _306  and  _309
REMARK  139  A    between atoms: _312  and  _314
REMARK  140  A    between atoms: _314  and  _315
REMARK  141  A    between atoms: _318  and  _320
REMARK  142  A    between atoms: _320  and  _321
REMARK  143  A    between atoms: _323  and  _325
REMARK  144  A    between atoms: _325  and  _326
REMARK  145  A    between atoms: _328  and  _330
REMARK  146  A    between atoms: _330  and  _331
REMARK  147  A    between atoms: _330  and  _333
REMARK  148  A    between atoms: _333  and  _334
REMARK  149  A    between atoms: _334  and  _335
REMARK  150  A    between atoms: _338  and  _340
REMARK  151  A    between atoms: _340  and  _341
REMARK  152  A    between atoms: _340  and  _343
REMARK  153  A    between atoms: _343  and  _344
REMARK  154  A    between atoms: _344  and  _345
REMARK  155  A    between atoms: _347  and  _349
REMARK  156  A    between atoms: _349  and  _350
REMARK  157  A    between atoms: _349  and  _352
REMARK  158  A    between atoms: _352  and  _353
REMARK  159  A    between atoms: _359  and  _361
REMARK  160  A    between atoms: _361  and  _362
REMARK  161  A    between atoms: _361  and  _364
REMARK  162  A    between atoms: _364  and  _365
REMARK  163  A    between atoms: _370  and  _371
REMARK  164  A    between atoms: _373  and  _375
REMARK  165  A    between atoms: _375  and  _376
REMARK  166  A    between atoms: _375  and  _378
REMARK  167  A    between atoms: _378  and  _379
REMARK  168  A    between atoms: _382  and  _384
REMARK  169  A    between atoms: _384  and  _385
REMARK  170  A    between atoms: _384  and  _387
REMARK  171  A    between atoms: _387  and  _388
REMARK  172  A    between atoms: _388  and  _389
REMARK  173  A    between atoms: _389  and  _390
REMARK  174  A    between atoms: _390  and  _391
REMARK  175  A    between atoms: _396  and  _397
REMARK  176  A    between atoms: _402  and  _404
REMARK  177  A    between atoms: _404  and  _405
REMARK  178  A    between atoms: _404  and  _407
REMARK  179  A    between atoms: _407  and  _408
REMARK  180  A    between atoms: _408  and  _409
REMARK  181  A    between atoms: _412  and  _414
REMARK  182  A    between atoms: _414  and  _415
REMARK  183  A    between atoms: _414  and  _417
REMARK  184  A    between atoms: _417  and  _418
REMARK  185  A    between atoms: _423  and  _425
REMARK  186  A    between atoms: _425  and  _426
REMARK  187  A    between atoms: _425  and  _428
REMARK  188  A    between atoms: _428  and  _429
REMARK  189  A    between atoms: _432  and  _434
REMARK  190  A    between atoms: _434  and  _435
REMARK  191  A    between atoms: _434  and  _437
REMARK  192  A    between atoms: _437  and  _438
REMARK  193  A    between atoms: _441  and  _443
REMARK  194  A    between atoms: _443  and  _444
REMARK  195  A    between atoms: _443  and  _446
REMARK  196  A    between atoms: _446  and  _447
REMARK  197  A    between atoms: _450  and  _452
REMARK  198  A    between atoms: _452  and  _453
REMARK  199  A    between atoms: _452  and  _455
REMARK  200  A    between atoms: _455  and  _456
REMARK  201  A    between atoms: _459  and  _461
REMARK  202  A    between atoms: _461  and  _462
REMARK  203  A    between atoms: _461  and  _464
REMARK  204  A    between atoms: _464  and  _465
REMARK  205  A    between atoms: _465  and  _466
REMARK  206  A    between atoms: _471  and  _473
REMARK  207  A    between atoms: _473  and  _474
REMARK  208  A    between atoms: _473  and  _476
REMARK  209  A    between atoms: _479  and  _481
REMARK  210  A    between atoms: _481  and  _482
REMARK  211  A    between atoms: _481  and  _484
REMARK  212  A    between atoms: _484  and  _485
REMARK  213  A    between atoms: _488  and  _490
REMARK  214  A    between atoms: _490  and  _491
REMARK  215  A    between atoms: _490  and  _493
REMARK  216  A    between atoms: _493  and  _494
REMARK  217  A    between atoms: _497  and  _499
REMARK  218  A    between atoms: _499  and  _500
REMARK  219  A    between atoms: _499  and  _502
REMARK  220  A    between atoms: _502  and  _503
REMARK  221  A    between atoms: _509  and  _511
REMARK  222  A    between atoms: _511  and  _512
REMARK  223  A    between atoms: _514  and  _516
REMARK  224  A    between atoms: _516  and  _517
REMARK  225  A    between atoms: _516  and  _519
REMARK  226  A    between atoms: _519  and  _520
REMARK  227  A    between atoms: _523  and  _525
REMARK  228  A    between atoms: _525  and  _526
REMARK  229  A    between atoms: _525  and  _528
REMARK  230  A    between atoms: _528  and  _529
REMARK  231  A    between atoms: _534  and  _536
REMARK  232  A    between atoms: _536  and  _537
REMARK  233  A    between atoms: _536  and  _539
REMARK  234  A    between atoms: _539  and  _540
REMARK  235  A    between atoms: _546  and  _548
REMARK  236  A    between atoms: _548  and  _549
REMARK  237  A    between atoms: _548  and  _551
REMARK  238  A    between atoms: _551  and  _552
REMARK  239  A    between atoms: _555  and  _557
REMARK  240  A    between atoms: _557  and  _558
REMARK  241  A    between atoms: _557  and  _560
REMARK  242  A    between atoms: _560  and  _561
REMARK  243  A    between atoms: _566  and  _567
REMARK  244  A    between atoms: _569  and  _571
REMARK  245  A    between atoms: _571  and  _572
REMARK  246  A    between atoms: _571  and  _574
REMARK  247  A    between atoms: _574  and  _575
REMARK  248  A    between atoms: _575  and  _576
REMARK  249  A    between atoms: _576  and  _577
REMARK  250  A    between atoms: _586  and  _588
REMARK  251  A    between atoms: _588  and  _589
REMARK  252  A    between atoms: _588  and  _591
REMARK  253  A    between atoms: _591  and  _592
REMARK  254  A    between atoms: _592  and  _593
REMARK  255  A    between atoms: _593  and  _594
REMARK  256  A    between atoms: _603  and  _605
REMARK  257  A    between atoms: _605  and  _606
REMARK  258  A    between atoms: _605  and  _608
REMARK  259  A    between atoms: _608  and  _609
REMARK  260  A    between atoms: _614  and  _616
REMARK  261  A    between atoms: _616  and  _617
REMARK                            x       y       z     vdW  Elec       q    Type
REMARK                         _______ _______ _______ _____ _____    ______ ____
ROOT
ATOM      1  O   HOH     1      10.342   6.695   0.466  0.00  0.00    +0.000 OA
ENDROOT
TORSDOF 0
REMARK  Name = ../refined-set-2016/1ydt/1ydt_pocket.pdb
REMARK  261 active torsions:
REMARK  status: ('A' for Active; 'I' for Inactive)
REMARK    1  A    between atoms: _1  and  _3
REMARK    2  A    between atoms: _3  and  _4
REMARK    3  A    between atoms: _3  and  _6
REMARK    4  A    between atoms: _6  and  _7
REMARK    5  A    between atoms: _7  and  _8
REMARK    6  A    between atoms: _8  and  _9
REMARK    7  A    between atoms: _9  and  _10
REMARK    8  A    between atoms: _14  and  _16
REMARK    9  A    between atoms: _16  and  _17
REMARK   10  A    between atoms: _16  and  _19
REMARK   11  A    between atoms: _19  and  _20
REMARK   12  A    between atoms: _23  and  _25
REMARK   13  A    between atoms: _25  and  _26
REMARK   14  A    between atoms: _25  and  _28
REMARK   15  A    between atoms: _28  and  _29
REMARK   16  A    between atoms: _32  and  _34
REMARK   17  A    between atoms: _34  and  _35
REMARK   18  A    between atoms: _37  and  _39
REMARK   19  A    between atoms: _39  and  _40
REMARK   20  A    between atoms: _39  and  _42
REMARK   21  A    between atoms: _42  and  _43
REMARK   22  A    between atoms: _46  and  _48
REMARK   23  A    between atoms: _48  and  _49
REMARK   24  A    between atoms: _51  and  _53
REMARK   25  A    between atoms: _53  and  _54
REMARK   26  A    between atoms: _53  and  _56
REMARK   27  A    between atoms: _56  and  _57
REMARK   28  A    between atoms: _59  and  _61
REMARK   29  A    between atoms: _61  and  _62
REMARK   30  A    between atoms: _61  and  _64
REMARK   31  A    between atoms: _64  and  _65
REMARK   32  A    between atoms: _71  and  _73
REMARK   33  A    between atoms: _73  and  _74
REMARK   34  A    between atoms: _76  and  _78
REMARK   35  A    between atoms: _78  and  _79
REMARK   36  A    between atoms: _78  and  _81
REMARK   37  A    between atoms: _81  and  _82
REMARK   38  A    between atoms: _82  and  _83
REMARK   39  A    between atoms: _83  and  _84
REMARK   40  A    between atoms: _93  and  _95
REMARK   41  A    between atoms: _95  and  _96
REMARK   42  A    between atoms: _95  and  _98
REMARK   43  A    between atoms: _101  and  _103
REMARK   44  A    between atoms: _103  and  _104
REMARK   45  A    between atoms: _103  and  _106
REMARK   46  A    between atoms: _106  and  _107
REMARK   47  A    between atoms: _107  and  _108
REMARK   48  A    between atoms: _110  and  _112
REMARK   49  A    between atoms: _112  and  _113
REMARK   50  A    between atoms: _112  and  _115
REMARK   51  A    between atoms: _115  and  _116
REMARK   52  A    between atoms: _119  and  _121
REMARK   53  A    between atoms: _121  and  _122
REMARK   54  A    between atoms: _121  and  _124
REMARK   55  A    between atoms: _124  and  _125
REMARK   56  A    between atoms: _130  and  _131
REMARK   57  A    between atoms: _133  and  _135
REMARK   58  A    between atoms: _135  and  _136
REMARK   59  A    between atoms: _139  and  _141
REMARK   60  A    between atoms: _141  and  _142
REMARK   61  A    between atoms: _141  and  _144
REMARK   62  A    between atoms: _144  and  _145
REMARK   63  A    between atoms: _145  and  _146
REMARK   64  A    between atoms: _148  and  _150
REMARK   65  A    between atoms: _150  and  _151
REMARK   66  A    between atoms: _150  and  _153
REMARK   67  A    between atoms: _153  and  _154
REMARK   68  A    between atoms: _154  and  _155
REMARK   69  A    between atoms: _155  and  _156
REMARK   70  A    between atoms: _156  and  _157
REMARK   71  A    between atoms: _161  and  _163
REMARK   72  A    between atoms: _163  and  _164
REMARK   73  A    between atoms: _163  and  _166
REMARK   74  A    between atoms: _166  and  _167
REMARK   75  A    between atoms: _170  and  _172
REMARK   76  A    between atoms: _172  and  _173
REMARK   77  A    between atoms: _172  and  _175
REMARK   78  A    between atoms: _175  and  _176
REMARK   79  A    between atoms: _179  and  _181
REMARK   80  A    between atoms: _181  and  _182
REMARK   81  A    between atoms: _181  and  _184
REMARK   82  A    between atoms: _184  and  _185
REMARK   83  A    between atoms: _188  and  _190
REMARK   84  A    between atoms: _190  and  _191
REMARK   85  A    between atoms: _190  and  _193
REMARK   86  A    between atoms: _196  and  _198
REMARK   87  A    between atoms: _198  and  _199
REMARK   88  A    between atoms: _198  and  _201
REMARK   89  A    between atoms: _201  and  _202
REMARK   90  A    between atoms: _205  and  _207
REMARK   91  A    between atoms: _207  and  _208
REMARK   92  A    between atoms: _207  and  _210
REMARK   93  A    between atoms: _210  and  _211
REMARK   94  A    between atoms: _211  and  _212
REMARK   95  A    between atoms: _215  and  _217
REMARK   96  A    between atoms: _217  and  _218
REMARK   97  A    between atoms: _217  and  _220
REMARK   98  A    between atoms: _220  and  _221
REMARK   99  A    between atoms: _224  and  _226
REMARK  100  A    between atoms: _226  and  _227
REMARK  101  A    between atoms: _226  and  _229
REMARK  102  A    between atoms: _232  and  _234
REMARK  103  A    between atoms: _234  and  _235
REMARK  104  A    between atoms: _234  and  _237
REMARK  105  A    between atoms: _237  and  _238
REMARK  106  A    between atoms: _238  and  _239
REMARK  107  A    between atoms: _239  and  _240
REMARK  108  A    between atoms: _240  and  _241
REMARK  109  A    between atoms: _245  and  _247
REMARK  110  A    between atoms: _247  and  _248
REMARK  111  A    between atoms: _247  and  _250
REMARK  112  A    between atoms: _250  and  _251
REMARK  113  A    between atoms: _254  and  _256
REMARK  114  A    between atoms: _256  and  _257
REMARK  115  A    between atoms: _256  and  _259
REMARK  116  A    between atoms: _259  and  _260
REMARK  117  A    between atoms: _260  and  _261
REMARK  118  A    between atoms: _263  and  _265
REMARK  119  A    between atoms: _265  and  _266
REMARK  120  A    between atoms: _265  and  _268
REMARK  121  A    between atoms: _271  and  _273
REMARK  122  A    between atoms: _273  and  _274
REMARK  123  A    between atoms: _273  and  _276
REMARK  124  A    between atoms: _276  and  _277
REMARK  125  A    between atoms: _277  and  _278
REMARK  126  A    between atoms: _280  and  _282
REMARK  127  A    between atoms: _282  and  _283
REMARK  128  A    between atoms: _282  and  _285
REMARK  129  A    between atoms: _285  and  _286
REMARK  130  A    between atoms: _286  and  _287
REMARK  131  A    between atoms: _290  and  _292
REMARK  132  A    between atoms: _292  and  _293
REMARK  133  A    between atoms: _292  and  _295
REMARK  134  A    between atoms: _295  and  _296
REMARK  135  A    between atoms: _301  and  _302
REMARK  136  A    between atoms: _304  and  _306
REMARK  137  A    between atoms: _306  and  _307
REMARK  138  A    between atoms: _306  and  _309
REMARK  139  A    between atoms: _312  and  _314
REMARK  140  A    between atoms: _314  and  _315
REMARK  141  A    between atoms: _318  and  _320
REMARK  142  A    between atoms: _320  and  _321
REMARK  143  A    between atoms: _323  and  _325
REMARK  144  A    between atoms: _325  and  _326
REMARK  145  A    between atoms: _328  and  _330
REMARK  146  A    between atoms: _330  and  _331
REMARK  147  A    between atoms: _330  and  _333
REMARK  148  A    between atoms: _333  and  _334
REMARK  149  A    between atoms: _334  and  _335
REMARK  150  A    between atoms: _338  and  _340
REMARK  151  A    between atoms: _340  and  _341
REMARK  152  A    between atoms: _340  and  _343
REMARK  153  A    between atoms: _343  and  _344
REMARK  154  A    between atoms: _344  and  _345
REMARK  155  A    between atoms: _347  and  _349
REMARK  156  A    between atoms: _349  and  _350
REMARK  157  A    between atoms: _349  and  _352
REMARK  158  A    between atoms: _352  and  _353
REMARK  159  A    between atoms: _359  and  _361
REMARK  160  A    between atoms: _361  and  _362
REMARK  161  A    between atoms: _361  and  _364
REMARK  162  A    between atoms: _364  and  _365
REMARK  163  A    between atoms: _370  and  _371
REMARK  164  A    between atoms: _373  and  _375
REMARK  165  A    between atoms: _375  and  _376
REMARK  166  A    between atoms: _375  and  _378
REMARK  167  A    between atoms: _378  and  _379
REMARK  168  A    between atoms: _382  and  _384
REMARK  169  A    between atoms: _384  and  _385
REMARK  170  A    between atoms: _384  and  _387
REMARK  171  A    between atoms: _387  and  _388
REMARK  172  A    between atoms: _388  and  _389
REMARK  173  A    between atoms: _389  and  _390
REMARK  174  A    between atoms: _390  and  _391
REMARK  175  A    between atoms: _396  and  _397
REMARK  176  A    between atoms: _402  and  _404
REMARK  177  A    between atoms: _404  and  _405
REMARK  178  A    between atoms: _404  and  _407
REMARK  179  A    between atoms: _407  and  _408
REMARK  180  A    between atoms: _408  and  _409
REMARK  181  A    between atoms: _412  and  _414
REMARK  182  A    between atoms: _414  and  _415
REMARK  183  A    between atoms: _414  and  _417
REMARK  184  A    between atoms: _417  and  _418
REMARK  185  A    between atoms: _423  and  _425
REMARK  186  A    between atoms: _425  and  _426
REMARK  187  A    between atoms: _425  and  _428
REMARK  188  A    between atoms: _428  and  _429
REMARK  189  A    between atoms: _432  and  _434
REMARK  190  A    between atoms: _434  and  _435
REMARK  191  A    between atoms: _434  and  _437
REMARK  192  A    between atoms: _437  and  _438
REMARK  193  A    between atoms: _441  and  _443
REMARK  194  A    between atoms: _443  and  _444
REMARK  195  A    between atoms: _443  and  _446
REMARK  196  A    between atoms: _446  and  _447
REMARK  197  A    between atoms: _450  and  _452
REMARK  198  A    between atoms: _452  and  _453
REMARK  199  A    between atoms: _452  and  _455
REMARK  200  A    between atoms: _455  and  _456
REMARK  201  A    between atoms: _459  and  _461
REMARK  202  A    between atoms: _461  and  _462
REMARK  203  A    between atoms: _461  and  _464
REMARK  204  A    between atoms: _464  and  _465
REMARK  205  A    between atoms: _465  and  _466
REMARK  206  A    between atoms: _471  and  _473
REMARK  207  A    between atoms: _473  and  _474
REMARK  208  A    between atoms: _473  and  _476
REMARK  209  A    between atoms: _479  and  _481
REMARK  210  A    between atoms: _481  and  _482
REMARK  211  A    between atoms: _481  and  _484
REMARK  212  A    between atoms: _484  and  _485
REMARK  213  A    between atoms: _488  and  _490
REMARK  214  A    between atoms: _490  and  _491
REMARK  215  A    between atoms: _490  and  _493
REMARK  216  A    between atoms: _493  and  _494
REMARK  217  A    between atoms: _497  and  _499
REMARK  218  A    between atoms: _499  and  _500
REMARK  219  A    between atoms: _499  and  _502
REMARK  220  A    between atoms: _502  and  _503
REMARK  221  A    between atoms: _509  and  _511
REMARK  222  A    between atoms: _511  and  _512
REMARK  223  A    between atoms: _514  and  _516
REMARK  224  A    between atoms: _516  and  _517
REMARK  225  A    between atoms: _516  and  _519
REMARK  226  A    between atoms: _519  and  _520
REMARK  227  A    between atoms: _523  and  _525
REMARK  228  A    between atoms: _525  and  _526
REMARK  229  A    between atoms: _525  and  _528
REMARK  230  A    between atoms: _528  and  _529
REMARK  231  A    between atoms: _534  and  _536
REMARK  232  A    between atoms: _536  and  _537
REMARK  233  A    between atoms: _536  and  _539
REMARK  234  A    between atoms: _539  and  _540
REMARK  235  A    between atoms: _546  and  _548
REMARK  236  A    between atoms: _548  and  _549
REMARK  237  A    between atoms: _548  and  _551
REMARK  238  A    between atoms: _551  and  _552
REMARK  239  A    between atoms: _555  and  _557
REMARK  240  A    between atoms: _557  and  _558
REMARK  241  A    between atoms: _557  and  _560
REMARK  242  A    between atoms: _560  and  _561
REMARK  243  A    between atoms: _566  and  _567
REMARK  244  A    between atoms: _569  and  _571
REMARK  245  A    between atoms: _571  and  _572
REMARK  246  A    between atoms: _571  and  _574
REMARK  247  A    between atoms: _574  and  _575
REMARK  248  A    between atoms: _575  and  _576
REMARK  249  A    between atoms: _576  and  _577
REMARK  250  A    between atoms: _586  and  _588
REMARK  251  A    between atoms: _588  and  _589
REMARK  252  A    between atoms: _588  and  _591
REMARK  253  A    between atoms: _591  and  _592
REMARK  254  A    between atoms: _592  and  _593
REMARK  255  A    between atoms: _593  and  _594
REMARK  256  A    between atoms: _603  and  _605
REMARK  257  A    between atoms: _605  and  _606
REMARK  258  A    between atoms: _605  and  _608
REMARK  259  A    between atoms: _608  and  _609
REMARK  260  A    between atoms: _614  and  _616
REMARK  261  A    between atoms: _616  and  _617
REMARK                            x       y       z     vdW  Elec       q    Type
REMARK                         _______ _______ _______ _____ _____    ______ ____
ROOT
ATOM      1  O   HOH     1      10.969   9.687   8.891  0.00  0.00    +0.000 OA
ENDROOT
TORSDOF 0
REMARK  Name = ../refined-set-2016/1ydt/1ydt_pocket.pdb
REMARK  261 active torsions:
REMARK  status: ('A' for Active; 'I' for Inactive)
REMARK    1  A    between atoms: _1  and  _3
REMARK    2  A    between atoms: _3  and  _4
REMARK    3  A    between atoms: _3  and  _6
REMARK    4  A    between atoms: _6  and  _7
REMARK    5  A    between atoms: _7  and  _8
REMARK    6  A    between atoms: _8  and  _9
REMARK    7  A    between atoms: _9  and  _10
REMARK    8  A    between atoms: _14  and  _16
REMARK    9  A    between atoms: _16  and  _17
REMARK   10  A    between atoms: _16  and  _19
REMARK   11  A    between atoms: _19  and  _20
REMARK   12  A    between atoms: _23  and  _25
REMARK   13  A    between atoms: _25  and  _26
REMARK   14  A    between atoms: _25  and  _28
REMARK   15  A    between atoms: _28  and  _29
REMARK   16  A    between atoms: _32  and  _34
REMARK   17  A    between atoms: _34  and  _35
REMARK   18  A    between atoms: _37  and  _39
REMARK   19  A    between atoms: _39  and  _40
REMARK   20  A    between atoms: _39  and  _42
REMARK   21  A    between atoms: _42  and  _43
REMARK   22  A    between atoms: _46  and  _48
REMARK   23  A    between atoms: _48  and  _49
REMARK   24  A    between atoms: _51  and  _53
REMARK   25  A    between atoms: _53  and  _54
REMARK   26  A    between atoms: _53  and  _56
REMARK   27  A    between atoms: _56  and  _57
REMARK   28  A    between atoms: _59  and  _61
REMARK   29  A    between atoms: _61  and  _62
REMARK   30  A    between atoms: _61  and  _64
REMARK   31  A    between atoms: _64  and  _65
REMARK   32  A    between atoms: _71  and  _73
REMARK   33  A    between atoms: _73  and  _74
REMARK   34  A    between atoms: _76  and  _78
REMARK   35  A    between atoms: _78  and  _79
REMARK   36  A    between atoms: _78  and  _81
REMARK   37  A    between atoms: _81  and  _82
REMARK   38  A    between atoms: _82  and  _83
REMARK   39  A    between atoms: _83  and  _84
REMARK   40  A    between atoms: _93  and  _95
REMARK   41  A    between atoms: _95  and  _96
REMARK   42  A    between atoms: _95  and  _98
REMARK   43  A    between atoms: _101  and  _103
REMARK   44  A    between atoms: _103  and  _104
REMARK   45  A    between atoms: _103  and  _106
REMARK   46  A    between atoms: _106  and  _107
REMARK   47  A    between atoms: _107  and  _108
REMARK   48  A    between atoms: _110  and  _112
REMARK   49  A    between atoms: _112  and  _113
REMARK   50  A    between atoms: _112  and  _115
REMARK   51  A    between atoms: _115  and  _116
REMARK   52  A    between atoms: _119  and  _121
REMARK   53  A    between atoms: _121  and  _122
REMARK   54  A    between atoms: _121  and  _124
REMARK   55  A    between atoms: _124  and  _125
REMARK   56  A    between atoms: _130  and  _131
REMARK   57  A    between atoms: _133  and  _135
REMARK   58  A    between atoms: _135  and  _136
REMARK   59  A    between atoms: _139  and  _141
REMARK   60  A    between atoms: _141  and  _142
REMARK   61  A    between atoms: _141  and  _144
REMARK   62  A    between atoms: _144  and  _145
REMARK   63  A    between atoms: _145  and  _146
REMARK   64  A    between atoms: _148  and  _150
REMARK   65  A    between atoms: _150  and  _151
REMARK   66  A    between atoms: _150  and  _153
REMARK   67  A    between atoms: _153  and  _154
REMARK   68  A    between atoms: _154  and  _155
REMARK   69  A    between atoms: _155  and  _156
REMARK   70  A    between atoms: _156  and  _157
REMARK   71  A    between atoms: _161  and  _163
REMARK   72  A    between atoms: _163  and  _164
REMARK   73  A    between atoms: _163  and  _166
REMARK   74  A    between atoms: _166  and  _167
REMARK   75  A    between atoms: _170  and  _172
REMARK   76  A    between atoms: _172  and  _173
REMARK   77  A    between atoms: _172  and  _175
REMARK   78  A    between atoms: _175  and  _176
REMARK   79  A    between atoms: _179  and  _181
REMARK   80  A    between atoms: _181  and  _182
REMARK   81  A    between atoms: _181  and  _184
REMARK   82  A    between atoms: _184  and  _185
REMARK   83  A    between atoms: _188  and  _190
REMARK   84  A    between atoms: _190  and  _191
REMARK   85  A    between atoms: _190  and  _193
REMARK   86  A    between atoms: _196  and  _198
REMARK   87  A    between atoms: _198  and  _199
REMARK   88  A    between atoms: _198  and  _201
REMARK   89  A    between atoms: _201  and  _202
REMARK   90  A    between atoms: _205  and  _207
REMARK   91  A    between atoms: _207  and  _208
REMARK   92  A    between atoms: _207  and  _210
REMARK   93  A    between atoms: _210  and  _211
REMARK   94  A    between atoms: _211  and  _212
REMARK   95  A    between atoms: _215  and  _217
REMARK   96  A    between atoms: _217  and  _218
REMARK   97  A    between atoms: _217  and  _220
REMARK   98  A    between atoms: _220  and  _221
REMARK   99  A    between atoms: _224  and  _226
REMARK  100  A    between atoms: _226  and  _227
REMARK  101  A    between atoms: _226  and  _229
REMARK  102  A    between atoms: _232  and  _234
REMARK  103  A    between atoms: _234  and  _235
REMARK  104  A    between atoms: _234  and  _237
REMARK  105  A    between atoms: _237  and  _238
REMARK  106  A    between atoms: _238  and  _239
REMARK  107  A    between atoms: _239  and  _240
REMARK  108  A    between atoms: _240  and  _241
REMARK  109  A    between atoms: _245  and  _247
REMARK  110  A    between atoms: _247  and  _248
REMARK  111  A    between atoms: _247  and  _250
REMARK  112  A    between atoms: _250  and  _251
REMARK  113  A    between atoms: _254  and  _256
REMARK  114  A    between atoms: _256  and  _257
REMARK  115  A    between atoms: _256  and  _259
REMARK  116  A    between atoms: _259  and  _260
REMARK  117  A    between atoms: _260  and  _261
REMARK  118  A    between atoms: _263  and  _265
REMARK  119  A    between atoms: _265  and  _266
REMARK  120  A    between atoms: _265  and  _268
REMARK  121  A    between atoms: _271  and  _273
REMARK  122  A    between atoms: _273  and  _274
REMARK  123  A    between atoms: _273  and  _276
REMARK  124  A    between atoms: _276  and  _277
REMARK  125  A    between atoms: _277  and  _278
REMARK  126  A    between atoms: _280  and  _282
REMARK  127  A    between atoms: _282  and  _283
REMARK  128  A    between atoms: _282  and  _285
REMARK  129  A    between atoms: _285  and  _286
REMARK  130  A    between atoms: _286  and  _287
REMARK  131  A    between atoms: _290  and  _292
REMARK  132  A    between atoms: _292  and  _293
REMARK  133  A    between atoms: _292  and  _295
REMARK  134  A    between atoms: _295  and  _296
REMARK  135  A    between atoms: _301  and  _302
REMARK  136  A    between atoms: _304  and  _306
REMARK  137  A    between atoms: _306  and  _307
REMARK  138  A    between atoms: _306  and  _309
REMARK  139  A    between atoms: _312  and  _314
REMARK  140  A    between atoms: _314  and  _315
REMARK  141  A    between atoms: _318  and  _320
REMARK  142  A    between atoms: _320  and  _321
REMARK  143  A    between atoms: _323  and  _325
REMARK  144  A    between atoms: _325  and  _326
REMARK  145  A    between atoms: _328  and  _330
REMARK  146  A    between atoms: _330  and  _331
REMARK  147  A    between atoms: _330  and  _333
REMARK  148  A    between atoms: _333  and  _334
REMARK  149  A    between atoms: _334  and  _335
REMARK  150  A    between atoms: _338  and  _340
REMARK  151  A    between atoms: _340  and  _341
REMARK  152  A    between atoms: _340  and  _343
REMARK  153  A    between atoms: _343  and  _344
REMARK  154  A    between atoms: _344  and  _345
REMARK  155  A    between atoms: _347  and  _349
REMARK  156  A    between atoms: _349  and  _350
REMARK  157  A    between atoms: _349  and  _352
REMARK  158  A    between atoms: _352  and  _353
REMARK  159  A    between atoms: _359  and  _361
REMARK  160  A    between atoms: _361  and  _362
REMARK  161  A    between atoms: _361  and  _364
REMARK  162  A    between atoms: _364  and  _365
REMARK  163  A    between atoms: _370  and  _371
REMARK  164  A    between atoms: _373  and  _375
REMARK  165  A    between atoms: _375  and  _376
REMARK  166  A    between atoms: _375  and  _378
REMARK  167  A    between atoms: _378  and  _379
REMARK  168  A    between atoms: _382  and  _384
REMARK  169  A    between atoms: _384  and  _385
REMARK  170  A    between atoms: _384  and  _387
REMARK  171  A    between atoms: _387  and  _388
REMARK  172  A    between atoms: _388  and  _389
REMARK  173  A    between atoms: _389  and  _390
REMARK  174  A    between atoms: _390  and  _391
REMARK  175  A    between atoms: _396  and  _397
REMARK  176  A    between atoms: _402  and  _404
REMARK  177  A    between atoms: _404  and  _405
REMARK  178  A    between atoms: _404  and  _407
REMARK  179  A    between atoms: _407  and  _408
REMARK  180  A    between atoms: _408  and  _409
REMARK  181  A    between atoms: _412  and  _414
REMARK  182  A    between atoms: _414  and  _415
REMARK  183  A    between atoms: _414  and  _417
REMARK  184  A    between atoms: _417  and  _418
REMARK  185  A    between atoms: _423  and  _425
REMARK  186  A    between atoms: _425  and  _426
REMARK  187  A    between atoms: _425  and  _428
REMARK  188  A    between atoms: _428  and  _429
REMARK  189  A    between atoms: _432  and  _434
REMARK  190  A    between atoms: _434  and  _435
REMARK  191  A    between atoms: _434  and  _437
REMARK  192  A    between atoms: _437  and  _438
REMARK  193  A    between atoms: _441  and  _443
REMARK  194  A    between atoms: _443  and  _444
REMARK  195  A    between atoms: _443  and  _446
REMARK  196  A    between atoms: _446  and  _447
REMARK  197  A    between atoms: _450  and  _452
REMARK  198  A    between atoms: _452  and  _453
REMARK  199  A    between atoms: _452  and  _455
REMARK  200  A    between atoms: _455  and  _456
REMARK  201  A    between atoms: _459  and  _461
REMARK  202  A    between atoms: _461  and  _462
REMARK  203  A    between atoms: _461  and  _464
REMARK  204  A    between atoms: _464  and  _465
REMARK  205  A    between atoms: _465  and  _466
REMARK  206  A    between atoms: _471  and  _473
REMARK  207  A    between atoms: _473  and  _474
REMARK  208  A    between atoms: _473  and  _476
REMARK  209  A    between atoms: _479  and  _481
REMARK  210  A    between atoms: _481  and  _482
REMARK  211  A    between atoms: _481  and  _484
REMARK  212  A    between atoms: _484  and  _485
REMARK  213  A    between atoms: _488  and  _490
REMARK  214  A    between atoms: _490  and  _491
REMARK  215  A    between atoms: _490  and  _493
REMARK  216  A    between atoms: _493  and  _494
REMARK  217  A    between atoms: _497  and  _499
REMARK  218  A    between atoms: _499  and  _500
REMARK  219  A    between atoms: _499  and  _502
REMARK  220  A    between atoms: _502  and  _503
REMARK  221  A    between atoms: _509  and  _511
REMARK  222  A    between atoms: _511  and  _512
REMARK  223  A    between atoms: _514  and  _516
REMARK  224  A    between atoms: _516  and  _517
REMARK  225  A    between atoms: _516  and  _519
REMARK  226  A    between atoms: _519  and  _520
REMARK  227  A    between atoms: _523  and  _525
REMARK  228  A    between atoms: _525  and  _526
REMARK  229  A    between atoms: _525  and  _528
REMARK  230  A    between atoms: _528  and  _529
REMARK  231  A    between atoms: _534  and  _536
REMARK  232  A    between atoms: _536  and  _537
REMARK  233  A    between atoms: _536  and  _539
REMARK  234  A    between atoms: _539  and  _540
REMARK  235  A    between atoms: _546  and  _548
REMARK  236  A    between atoms: _548  and  _549
REMARK  237  A    between atoms: _548  and  _551
REMARK  238  A    between atoms: _551  and  _552
REMARK  239  A    between atoms: _555  and  _557
REMARK  240  A    between atoms: _557  and  _558
REMARK  241  A    between atoms: _557  and  _560
REMARK  242  A    between atoms: _560  and  _561
REMARK  243  A    between atoms: _566  and  _567
REMARK  244  A    between atoms: _569  and  _571
REMARK  245  A    between atoms: _571  and  _572
REMARK  246  A    between atoms: _571  and  _574
REMARK  247  A    between atoms: _574  and  _575
REMARK  248  A    between atoms: _575  and  _576
REMARK  249  A    between atoms: _576  and  _577
REMARK  250  A    between atoms: _586  and  _588
REMARK  251  A    between atoms: _588  and  _589
REMARK  252  A    between atoms: _588  and  _591
REMARK  253  A    between atoms: _591  and  _592
REMARK  254  A    between atoms: _592  and  _593
REMARK  255  A    between atoms: _593  and  _594
REMARK  256  A    between atoms: _603  and  _605
REMARK  257  A    between atoms: _605  and  _606
REMARK  258  A    between atoms: _605  and  _608
REMARK  259  A    between atoms: _608  and  _609
REMARK  260  A    between atoms: _614  and  _616
REMARK  261  A    between atoms: _616  and  _617
REMARK                            x       y       z     vdW  Elec       q    Type
REMARK                         _______ _______ _______ _____ _____    ______ ____
ROOT
ATOM      1  O   HOH     1      16.628  10.613  -7.324  0.00  0.00    +0.000 OA
ENDROOT
TORSDOF 0
REMARK  Name = ../refined-set-2016/1ydt/1ydt_pocket.pdb
REMARK  261 active torsions:
REMARK  status: ('A' for Active; 'I' for Inactive)
REMARK    1  A    between atoms: _1  and  _3
REMARK    2  A    between atoms: _3  and  _4
REMARK    3  A    between atoms: _3  and  _6
REMARK    4  A    between atoms: _6  and  _7
REMARK    5  A    between atoms: _7  and  _8
REMARK    6  A    between atoms: _8  and  _9
REMARK    7  A    between atoms: _9  and  _10
REMARK    8  A    between atoms: _14  and  _16
REMARK    9  A    between atoms: _16  and  _17
REMARK   10  A    between atoms: _16  and  _19
REMARK   11  A    between atoms: _19  and  _20
REMARK   12  A    between atoms: _23  and  _25
REMARK   13  A    between atoms: _25  and  _26
REMARK   14  A    between atoms: _25  and  _28
REMARK   15  A    between atoms: _28  and  _29
REMARK   16  A    between atoms: _32  and  _34
REMARK   17  A    between atoms: _34  and  _35
REMARK   18  A    between atoms: _37  and  _39
REMARK   19  A    between atoms: _39  and  _40
REMARK   20  A    between atoms: _39  and  _42
REMARK   21  A    between atoms: _42  and  _43
REMARK   22  A    between atoms: _46  and  _48
REMARK   23  A    between atoms: _48  and  _49
REMARK   24  A    between atoms: _51  and  _53
REMARK   25  A    between atoms: _53  and  _54
REMARK   26  A    between atoms: _53  and  _56
REMARK   27  A    between atoms: _56  and  _57
REMARK   28  A    between atoms: _59  and  _61
REMARK   29  A    between atoms: _61  and  _62
REMARK   30  A    between atoms: _61  and  _64
REMARK   31  A    between atoms: _64  and  _65
REMARK   32  A    between atoms: _71  and  _73
REMARK   33  A    between atoms: _73  and  _74
REMARK   34  A    between atoms: _76  and  _78
REMARK   35  A    between atoms: _78  and  _79
REMARK   36  A    between atoms: _78  and  _81
REMARK   37  A    between atoms: _81  and  _82
REMARK   38  A    between atoms: _82  and  _83
REMARK   39  A    between atoms: _83  and  _84
REMARK   40  A    between atoms: _93  and  _95
REMARK   41  A    between atoms: _95  and  _96
REMARK   42  A    between atoms: _95  and  _98
REMARK   43  A    between atoms: _101  and  _103
REMARK   44  A    between atoms: _103  and  _104
REMARK   45  A    between atoms: _103  and  _106
REMARK   46  A    between atoms: _106  and  _107
REMARK   47  A    between atoms: _107  and  _108
REMARK   48  A    between atoms: _110  and  _112
REMARK   49  A    between atoms: _112  and  _113
REMARK   50  A    between atoms: _112  and  _115
REMARK   51  A    between atoms: _115  and  _116
REMARK   52  A    between atoms: _119  and  _121
REMARK   53  A    between atoms: _121  and  _122
REMARK   54  A    between atoms: _121  and  _124
REMARK   55  A    between atoms: _124  and  _125
REMARK   56  A    between atoms: _130  and  _131
REMARK   57  A    between atoms: _133  and  _135
REMARK   58  A    between atoms: _135  and  _136
REMARK   59  A    between atoms: _139  and  _141
REMARK   60  A    between atoms: _141  and  _142
REMARK   61  A    between atoms: _141  and  _144
REMARK   62  A    between atoms: _144  and  _145
REMARK   63  A    between atoms: _145  and  _146
REMARK   64  A    between atoms: _148  and  _150
REMARK   65  A    between atoms: _150  and  _151
REMARK   66  A    between atoms: _150  and  _153
REMARK   67  A    between atoms: _153  and  _154
REMARK   68  A    between atoms: _154  and  _155
REMARK   69  A    between atoms: _155  and  _156
REMARK   70  A    between atoms: _156  and  _157
REMARK   71  A    between atoms: _161  and  _163
REMARK   72  A    between atoms: _163  and  _164
REMARK   73  A    between atoms: _163  and  _166
REMARK   74  A    between atoms: _166  and  _167
REMARK   75  A    between atoms: _170  and  _172
REMARK   76  A    between atoms: _172  and  _173
REMARK   77  A    between atoms: _172  and  _175
REMARK   78  A    between atoms: _175  and  _176
REMARK   79  A    between atoms: _179  and  _181
REMARK   80  A    between atoms: _181  and  _182
REMARK   81  A    between atoms: _181  and  _184
REMARK   82  A    between atoms: _184  and  _185
REMARK   83  A    between atoms: _188  and  _190
REMARK   84  A    between atoms: _190  and  _191
REMARK   85  A    between atoms: _190  and  _193
REMARK   86  A    between atoms: _196  and  _198
REMARK   87  A    between atoms: _198  and  _199
REMARK   88  A    between atoms: _198  and  _201
REMARK   89  A    between atoms: _201  and  _202
REMARK   90  A    between atoms: _205  and  _207
REMARK   91  A    between atoms: _207  and  _208
REMARK   92  A    between atoms: _207  and  _210
REMARK   93  A    between atoms: _210  and  _211
REMARK   94  A    between atoms: _211  and  _212
REMARK   95  A    between atoms: _215  and  _217
REMARK   96  A    between atoms: _217  and  _218
REMARK   97  A    between atoms: _217  and  _220
REMARK   98  A    between atoms: _220  and  _221
REMARK   99  A    between atoms: _224  and  _226
REMARK  100  A    between atoms: _226  and  _227
REMARK  101  A    between atoms: _226  and  _229
REMARK  102  A    between atoms: _232  and  _234
REMARK  103  A    between atoms: _234  and  _235
REMARK  104  A    between atoms: _234  and  _237
REMARK  105  A    between atoms: _237  and  _238
REMARK  106  A    between atoms: _238  and  _239
REMARK  107  A    between atoms: _239  and  _240
REMARK  108  A    between atoms: _240  and  _241
REMARK  109  A    between atoms: _245  and  _247
REMARK  110  A    between atoms: _247  and  _248
REMARK  111  A    between atoms: _247  and  _250
REMARK  112  A    between atoms: _250  and  _251
REMARK  113  A    between atoms: _254  and  _256
REMARK  114  A    between atoms: _256  and  _257
REMARK  115  A    between atoms: _256  and  _259
REMARK  116  A    between atoms: _259  and  _260
REMARK  117  A    between atoms: _260  and  _261
REMARK  118  A    between atoms: _263  and  _265
REMARK  119  A    between atoms: _265  and  _266
REMARK  120  A    between atoms: _265  and  _268
REMARK  121  A    between atoms: _271  and  _273
REMARK  122  A    between atoms: _273  and  _274
REMARK  123  A    between atoms: _273  and  _276
REMARK  124  A    between atoms: _276  and  _277
REMARK  125  A    between atoms: _277  and  _278
REMARK  126  A    between atoms: _280  and  _282
REMARK  127  A    between atoms: _282  and  _283
REMARK  128  A    between atoms: _282  and  _285
REMARK  129  A    between atoms: _285  and  _286
REMARK  130  A    between atoms: _286  and  _287
REMARK  131  A    between atoms: _290  and  _292
REMARK  132  A    between atoms: _292  and  _293
REMARK  133  A    between atoms: _292  and  _295
REMARK  134  A    between atoms: _295  and  _296
REMARK  135  A    between atoms: _301  and  _302
REMARK  136  A    between atoms: _304  and  _306
REMARK  137  A    between atoms: _306  and  _307
REMARK  138  A    between atoms: _306  and  _309
REMARK  139  A    between atoms: _312  and  _314
REMARK  140  A    between atoms: _314  and  _315
REMARK  141  A    between atoms: _318  and  _320
REMARK  142  A    between atoms: _320  and  _321
REMARK  143  A    between atoms: _323  and  _325
REMARK  144  A    between atoms: _325  and  _326
REMARK  145  A    between atoms: _328  and  _330
REMARK  146  A    between atoms: _330  and  _331
REMARK  147  A    between atoms: _330  and  _333
REMARK  148  A    between atoms: _333  and  _334
REMARK  149  A    between atoms: _334  and  _335
REMARK  150  A    between atoms: _338  and  _340
REMARK  151  A    between atoms: _340  and  _341
REMARK  152  A    between atoms: _340  and  _343
REMARK  153  A    between atoms: _343  and  _344
REMARK  154  A    between atoms: _344  and  _345
REMARK  155  A    between atoms: _347  and  _349
REMARK  156  A    between atoms: _349  and  _350
REMARK  157  A    between atoms: _349  and  _352
REMARK  158  A    between atoms: _352  and  _353
REMARK  159  A    between atoms: _359  and  _361
REMARK  160  A    between atoms: _361  and  _362
REMARK  161  A    between atoms: _361  and  _364
REMARK  162  A    between atoms: _364  and  _365
REMARK  163  A    between atoms: _370  and  _371
REMARK  164  A    between atoms: _373  and  _375
REMARK  165  A    between atoms: _375  and  _376
REMARK  166  A    between atoms: _375  and  _378
REMARK  167  A    between atoms: _378  and  _379
REMARK  168  A    between atoms: _382  and  _384
REMARK  169  A    between atoms: _384  and  _385
REMARK  170  A    between atoms: _384  and  _387
REMARK  171  A    between atoms: _387  and  _388
REMARK  172  A    between atoms: _388  and  _389
REMARK  173  A    between atoms: _389  and  _390
REMARK  174  A    between atoms: _390  and  _391
REMARK  175  A    between atoms: _396  and  _397
REMARK  176  A    between atoms: _402  and  _404
REMARK  177  A    between atoms: _404  and  _405
REMARK  178  A    between atoms: _404  and  _407
REMARK  179  A    between atoms: _407  and  _408
REMARK  180  A    between atoms: _408  and  _409
REMARK  181  A    between atoms: _412  and  _414
REMARK  182  A    between atoms: _414  and  _415
REMARK  183  A    between atoms: _414  and  _417
REMARK  184  A    between atoms: _417  and  _418
REMARK  185  A    between atoms: _423  and  _425
REMARK  186  A    between atoms: _425  and  _426
REMARK  187  A    between atoms: _425  and  _428
REMARK  188  A    between atoms: _428  and  _429
REMARK  189  A    between atoms: _432  and  _434
REMARK  190  A    between atoms: _434  and  _435
REMARK  191  A    between atoms: _434  and  _437
REMARK  192  A    between atoms: _437  and  _438
REMARK  193  A    between atoms: _441  and  _443
REMARK  194  A    between atoms: _443  and  _444
REMARK  195  A    between atoms: _443  and  _446
REMARK  196  A    between atoms: _446  and  _447
REMARK  197  A    between atoms: _450  and  _452
REMARK  198  A    between atoms: _452  and  _453
REMARK  199  A    between atoms: _452  and  _455
REMARK  200  A    between atoms: _455  and  _456
REMARK  201  A    between atoms: _459  and  _461
REMARK  202  A    between atoms: _461  and  _462
REMARK  203  A    between atoms: _461  and  _464
REMARK  204  A    between atoms: _464  and  _465
REMARK  205  A    between atoms: _465  and  _466
REMARK  206  A    between atoms: _471  and  _473
REMARK  207  A    between atoms: _473  and  _474
REMARK  208  A    between atoms: _473  and  _476
REMARK  209  A    between atoms: _479  and  _481
REMARK  210  A    between atoms: _481  and  _482
REMARK  211  A    between atoms: _481  and  _484
REMARK  212  A    between atoms: _484  and  _485
REMARK  213  A    between atoms: _488  and  _490
REMARK  214  A    between atoms: _490  and  _491
REMARK  215  A    between atoms: _490  and  _493
REMARK  216  A    between atoms: _493  and  _494
REMARK  217  A    between atoms: _497  and  _499
REMARK  218  A    between atoms: _499  and  _500
REMARK  219  A    between atoms: _499  and  _502
REMARK  220  A    between atoms: _502  and  _503
REMARK  221  A    between atoms: _509  and  _511
REMARK  222  A    between atoms: _511  and  _512
REMARK  223  A    between atoms: _514  and  _516
REMARK  224  A    between atoms: _516  and  _517
REMARK  225  A    between atoms: _516  and  _519
REMARK  226  A    between atoms: _519  and  _520
REMARK  227  A    between atoms: _523  and  _525
REMARK  228  A    between atoms: _525  and  _526
REMARK  229  A    between atoms: _525  and  _528
REMARK  230  A    between atoms: _528  and  _529
REMARK  231  A    between atoms: _534  and  _536
REMARK  232  A    between atoms: _536  and  _537
REMARK  233  A    between atoms: _536  and  _539
REMARK  234  A    between atoms: _539  and  _540
REMARK  235  A    between atoms: _546  and  _548
REMARK  236  A    between atoms: _548  and  _549
REMARK  237  A    between atoms: _548  and  _551
REMARK  238  A    between atoms: _551  and  _552
REMARK  239  A    between atoms: _555  and  _557
REMARK  240  A    between atoms: _557  and  _558
REMARK  241  A    between atoms: _557  and  _560
REMARK  242  A    between atoms: _560  and  _561
REMARK  243  A    between atoms: _566  and  _567
REMARK  244  A    between atoms: _569  and  _571
REMARK  245  A    between atoms: _571  and  _572
REMARK  246  A    between atoms: _571  and  _574
REMARK  247  A    between atoms: _574  and  _575
REMARK  248  A    between atoms: _575  and  _576
REMARK  249  A    between atoms: _576  and  _577
REMARK  250  A    between atoms: _586  and  _588
REMARK  251  A    between atoms: _588  and  _589
REMARK  252  A    between atoms: _588  and  _591
REMARK  253  A    between atoms: _591  and  _592
REMARK  254  A    between atoms: _592  and  _593
REMARK  255  A    between atoms: _593  and  _594
REMARK  256  A    between atoms: _603  and  _605
REMARK  257  A    between atoms: _605  and  _606
REMARK  258  A    between atoms: _605  and  _608
REMARK  259  A    between atoms: _608  and  _609
REMARK  260  A    between atoms: _614  and  _616
REMARK  261  A    between atoms: _616  and  _617
REMARK                            x       y       z     vdW  Elec       q    Type
REMARK                         _______ _______ _______ _____ _____    ______ ____
ROOT
ATOM      1  O   HOH     1      15.597   8.432  -5.581  0.00  0.00    +0.000 OA
ENDROOT
TORSDOF 0
REMARK  Name = ../refined-set-2016/1ydt/1ydt_pocket.pdb
REMARK  261 active torsions:
REMARK  status: ('A' for Active; 'I' for Inactive)
REMARK    1  A    between atoms: _1  and  _3
REMARK    2  A    between atoms: _3  and  _4
REMARK    3  A    between atoms: _3  and  _6
REMARK    4  A    between atoms: _6  and  _7
REMARK    5  A    between atoms: _7  and  _8
REMARK    6  A    between atoms: _8  and  _9
REMARK    7  A    between atoms: _9  and  _10
REMARK    8  A    between atoms: _14  and  _16
REMARK    9  A    between atoms: _16  and  _17
REMARK   10  A    between atoms: _16  and  _19
REMARK   11  A    between atoms: _19  and  _20
REMARK   12  A    between atoms: _23  and  _25
REMARK   13  A    between atoms: _25  and  _26
REMARK   14  A    between atoms: _25  and  _28
REMARK   15  A    between atoms: _28  and  _29
REMARK   16  A    between atoms: _32  and  _34
REMARK   17  A    between atoms: _34  and  _35
REMARK   18  A    between atoms: _37  and  _39
REMARK   19  A    between atoms: _39  and  _40
REMARK   20  A    between atoms: _39  and  _42
REMARK   21  A    between atoms: _42  and  _43
REMARK   22  A    between atoms: _46  and  _48
REMARK   23  A    between atoms: _48  and  _49
REMARK   24  A    between atoms: _51  and  _53
REMARK   25  A    between atoms: _53  and  _54
REMARK   26  A    between atoms: _53  and  _56
REMARK   27  A    between atoms: _56  and  _57
REMARK   28  A    between atoms: _59  and  _61
REMARK   29  A    between atoms: _61  and  _62
REMARK   30  A    between atoms: _61  and  _64
REMARK   31  A    between atoms: _64  and  _65
REMARK   32  A    between atoms: _71  and  _73
REMARK   33  A    between atoms: _73  and  _74
REMARK   34  A    between atoms: _76  and  _78
REMARK   35  A    between atoms: _78  and  _79
REMARK   36  A    between atoms: _78  and  _81
REMARK   37  A    between atoms: _81  and  _82
REMARK   38  A    between atoms: _82  and  _83
REMARK   39  A    between atoms: _83  and  _84
REMARK   40  A    between atoms: _93  and  _95
REMARK   41  A    between atoms: _95  and  _96
REMARK   42  A    between atoms: _95  and  _98
REMARK   43  A    between atoms: _101  and  _103
REMARK   44  A    between atoms: _103  and  _104
REMARK   45  A    between atoms: _103  and  _106
REMARK   46  A    between atoms: _106  and  _107
REMARK   47  A    between atoms: _107  and  _108
REMARK   48  A    between atoms: _110  and  _112
REMARK   49  A    between atoms: _112  and  _113
REMARK   50  A    between atoms: _112  and  _115
REMARK   51  A    between atoms: _115  and  _116
REMARK   52  A    between atoms: _119  and  _121
REMARK   53  A    between atoms: _121  and  _122
REMARK   54  A    between atoms: _121  and  _124
REMARK   55  A    between atoms: _124  and  _125
REMARK   56  A    between atoms: _130  and  _131
REMARK   57  A    between atoms: _133  and  _135
REMARK   58  A    between atoms: _135  and  _136
REMARK   59  A    between atoms: _139  and  _141
REMARK   60  A    between atoms: _141  and  _142
REMARK   61  A    between atoms: _141  and  _144
REMARK   62  A    between atoms: _144  and  _145
REMARK   63  A    between atoms: _145  and  _146
REMARK   64  A    between atoms: _148  and  _150
REMARK   65  A    between atoms: _150  and  _151
REMARK   66  A    between atoms: _150  and  _153
REMARK   67  A    between atoms: _153  and  _154
REMARK   68  A    between atoms: _154  and  _155
REMARK   69  A    between atoms: _155  and  _156
REMARK   70  A    between atoms: _156  and  _157
REMARK   71  A    between atoms: _161  and  _163
REMARK   72  A    between atoms: _163  and  _164
REMARK   73  A    between atoms: _163  and  _166
REMARK   74  A    between atoms: _166  and  _167
REMARK   75  A    between atoms: _170  and  _172
REMARK   76  A    between atoms: _172  and  _173
REMARK   77  A    between atoms: _172  and  _175
REMARK   78  A    between atoms: _175  and  _176
REMARK   79  A    between atoms: _179  and  _181
REMARK   80  A    between atoms: _181  and  _182
REMARK   81  A    between atoms: _181  and  _184
REMARK   82  A    between atoms: _184  and  _185
REMARK   83  A    between atoms: _188  and  _190
REMARK   84  A    between atoms: _190  and  _191
REMARK   85  A    between atoms: _190  and  _193
REMARK   86  A    between atoms: _196  and  _198
REMARK   87  A    between atoms: _198  and  _199
REMARK   88  A    between atoms: _198  and  _201
REMARK   89  A    between atoms: _201  and  _202
REMARK   90  A    between atoms: _205  and  _207
REMARK   91  A    between atoms: _207  and  _208
REMARK   92  A    between atoms: _207  and  _210
REMARK   93  A    between atoms: _210  and  _211
REMARK   94  A    between atoms: _211  and  _212
REMARK   95  A    between atoms: _215  and  _217
REMARK   96  A    between atoms: _217  and  _218
REMARK   97  A    between atoms: _217  and  _220
REMARK   98  A    between atoms: _220  and  _221
REMARK   99  A    between atoms: _224  and  _226
REMARK  100  A    between atoms: _226  and  _227
REMARK  101  A    between atoms: _226  and  _229
REMARK  102  A    between atoms: _232  and  _234
REMARK  103  A    between atoms: _234  and  _235
REMARK  104  A    between atoms: _234  and  _237
REMARK  105  A    between atoms: _237  and  _238
REMARK  106  A    between atoms: _238  and  _239
REMARK  107  A    between atoms: _239  and  _240
REMARK  108  A    between atoms: _240  and  _241
REMARK  109  A    between atoms: _245  and  _247
REMARK  110  A    between atoms: _247  and  _248
REMARK  111  A    between atoms: _247  and  _250
REMARK  112  A    between atoms: _250  and  _251
REMARK  113  A    between atoms: _254  and  _256
REMARK  114  A    between atoms: _256  and  _257
REMARK  115  A    between atoms: _256  and  _259
REMARK  116  A    between atoms: _259  and  _260
REMARK  117  A    between atoms: _260  and  _261
REMARK  118  A    between atoms: _263  and  _265
REMARK  119  A    between atoms: _265  and  _266
REMARK  120  A    between atoms: _265  and  _268
REMARK  121  A    between atoms: _271  and  _273
REMARK  122  A    between atoms: _273  and  _274
REMARK  123  A    between atoms: _273  and  _276
REMARK  124  A    between atoms: _276  and  _277
REMARK  125  A    between atoms: _277  and  _278
REMARK  126  A    between atoms: _280  and  _282
REMARK  127  A    between atoms: _282  and  _283
REMARK  128  A    between atoms: _282  and  _285
REMARK  129  A    between atoms: _285  and  _286
REMARK  130  A    between atoms: _286  and  _287
REMARK  131  A    between atoms: _290  and  _292
REMARK  132  A    between atoms: _292  and  _293
REMARK  133  A    between atoms: _292  and  _295
REMARK  134  A    between atoms: _295  and  _296
REMARK  135  A    between atoms: _301  and  _302
REMARK  136  A    between atoms: _304  and  _306
REMARK  137  A    between atoms: _306  and  _307
REMARK  138  A    between atoms: _306  and  _309
REMARK  139  A    between atoms: _312  and  _314
REMARK  140  A    between atoms: _314  and  _315
REMARK  141  A    between atoms: _318  and  _320
REMARK  142  A    between atoms: _320  and  _321
REMARK  143  A    between atoms: _323  and  _325
REMARK  144  A    between atoms: _325  and  _326
REMARK  145  A    between atoms: _328  and  _330
REMARK  146  A    between atoms: _330  and  _331
REMARK  147  A    between atoms: _330  and  _333
REMARK  148  A    between atoms: _333  and  _334
REMARK  149  A    between atoms: _334  and  _335
REMARK  150  A    between atoms: _338  and  _340
REMARK  151  A    between atoms: _340  and  _341
REMARK  152  A    between atoms: _340  and  _343
REMARK  153  A    between atoms: _343  and  _344
REMARK  154  A    between atoms: _344  and  _345
REMARK  155  A    between atoms: _347  and  _349
REMARK  156  A    between atoms: _349  and  _350
REMARK  157  A    between atoms: _349  and  _352
REMARK  158  A    between atoms: _352  and  _353
REMARK  159  A    between atoms: _359  and  _361
REMARK  160  A    between atoms: _361  and  _362
REMARK  161  A    between atoms: _361  and  _364
REMARK  162  A    between atoms: _364  and  _365
REMARK  163  A    between atoms: _370  and  _371
REMARK  164  A    between atoms: _373  and  _375
REMARK  165  A    between atoms: _375  and  _376
REMARK  166  A    between atoms: _375  and  _378
REMARK  167  A    between atoms: _378  and  _379
REMARK  168  A    between atoms: _382  and  _384
REMARK  169  A    between atoms: _384  and  _385
REMARK  170  A    between atoms: _384  and  _387
REMARK  171  A    between atoms: _387  and  _388
REMARK  172  A    between atoms: _388  and  _389
REMARK  173  A    between atoms: _389  and  _390
REMARK  174  A    between atoms: _390  and  _391
REMARK  175  A    between atoms: _396  and  _397
REMARK  176  A    between atoms: _402  and  _404
REMARK  177  A    between atoms: _404  and  _405
REMARK  178  A    between atoms: _404  and  _407
REMARK  179  A    between atoms: _407  and  _408
REMARK  180  A    between atoms: _408  and  _409
REMARK  181  A    between atoms: _412  and  _414
REMARK  182  A    between atoms: _414  and  _415
REMARK  183  A    between atoms: _414  and  _417
REMARK  184  A    between atoms: _417  and  _418
REMARK  185  A    between atoms: _423  and  _425
REMARK  186  A    between atoms: _425  and  _426
REMARK  187  A    between atoms: _425  and  _428
REMARK  188  A    between atoms: _428  and  _429
REMARK  189  A    between atoms: _432  and  _434
REMARK  190  A    between atoms: _434  and  _435
REMARK  191  A    between atoms: _434  and  _437
REMARK  192  A    between atoms: _437  and  _438
REMARK  193  A    between atoms: _441  and  _443
REMARK  194  A    between atoms: _443  and  _444
REMARK  195  A    between atoms: _443  and  _446
REMARK  196  A    between atoms: _446  and  _447
REMARK  197  A    between atoms: _450  and  _452
REMARK  198  A    between atoms: _452  and  _453
REMARK  199  A    between atoms: _452  and  _455
REMARK  200  A    between atoms: _455  and  _456
REMARK  201  A    between atoms: _459  and  _461
REMARK  202  A    between atoms: _461  and  _462
REMARK  203  A    between atoms: _461  and  _464
REMARK  204  A    between atoms: _464  and  _465
REMARK  205  A    between atoms: _465  and  _466
REMARK  206  A    between atoms: _471  and  _473
REMARK  207  A    between atoms: _473  and  _474
REMARK  208  A    between atoms: _473  and  _476
REMARK  209  A    between atoms: _479  and  _481
REMARK  210  A    between atoms: _481  and  _482
REMARK  211  A    between atoms: _481  and  _484
REMARK  212  A    between atoms: _484  and  _485
REMARK  213  A    between atoms: _488  and  _490
REMARK  214  A    between atoms: _490  and  _491
REMARK  215  A    between atoms: _490  and  _493
REMARK  216  A    between atoms: _493  and  _494
REMARK  217  A    between atoms: _497  and  _499
REMARK  218  A    between atoms: _499  and  _500
REMARK  219  A    between atoms: _499  and  _502
REMARK  220  A    between atoms: _502  and  _503
REMARK  221  A    between atoms: _509  and  _511
REMARK  222  A    between atoms: _511  and  _512
REMARK  223  A    between atoms: _514  and  _516
REMARK  224  A    between atoms: _516  and  _517
REMARK  225  A    between atoms: _516  and  _519
REMARK  226  A    between atoms: _519  and  _520
REMARK  227  A    between atoms: _523  and  _525
REMARK  228  A    between atoms: _525  and  _526
REMARK  229  A    between atoms: _525  and  _528
REMARK  230  A    between atoms: _528  and  _529
REMARK  231  A    between atoms: _534  and  _536
REMARK  232  A    between atoms: _536  and  _537
REMARK  233  A    between atoms: _536  and  _539
REMARK  234  A    between atoms: _539  and  _540
REMARK  235  A    between atoms: _546  and  _548
REMARK  236  A    between atoms: _548  and  _549
REMARK  237  A    between atoms: _548  and  _551
REMARK  238  A    between atoms: _551  and  _552
REMARK  239  A    between atoms: _555  and  _557
REMARK  240  A    between atoms: _557  and  _558
REMARK  241  A    between atoms: _557  and  _560
REMARK  242  A    between atoms: _560  and  _561
REMARK  243  A    between atoms: _566  and  _567
REMARK  244  A    between atoms: _569  and  _571
REMARK  245  A    between atoms: _571  and  _572
REMARK  246  A    between atoms: _571  and  _574
REMARK  247  A    between atoms: _574  and  _575
REMARK  248  A    between atoms: _575  and  _576
REMARK  249  A    between atoms: _576  and  _577
REMARK  250  A    between atoms: _586  and  _588
REMARK  251  A    between atoms: _588  and  _589
REMARK  252  A    between atoms: _588  and  _591
REMARK  253  A    between atoms: _591  and  _592
REMARK  254  A    between atoms: _592  and  _593
REMARK  255  A    between atoms: _593  and  _594
REMARK  256  A    between atoms: _603  and  _605
REMARK  257  A    between atoms: _605  and  _606
REMARK  258  A    between atoms: _605  and  _608
REMARK  259  A    between atoms: _608  and  _609
REMARK  260  A    between atoms: _614  and  _616
REMARK  261  A    between atoms: _616  and  _617
REMARK                            x       y       z     vdW  Elec       q    Type
REMARK                         _______ _______ _______ _____ _____    ______ ____
ROOT
ATOM      1  O   HOH     1       8.535   6.133  11.106  0.00  0.00    +0.000 OA
ENDROOT
TORSDOF 0
REMARK  Name = ../refined-set-2016/1ydt/1ydt_pocket.pdb
REMARK  261 active torsions:
REMARK  status: ('A' for Active; 'I' for Inactive)
REMARK    1  A    between atoms: _1  and  _3
REMARK    2  A    between atoms: _3  and  _4
REMARK    3  A    between atoms: _3  and  _6
REMARK    4  A    between atoms: _6  and  _7
REMARK    5  A    between atoms: _7  and  _8
REMARK    6  A    between atoms: _8  and  _9
REMARK    7  A    between atoms: _9  and  _10
REMARK    8  A    between atoms: _14  and  _16
REMARK    9  A    between atoms: _16  and  _17
REMARK   10  A    between atoms: _16  and  _19
REMARK   11  A    between atoms: _19  and  _20
REMARK   12  A    between atoms: _23  and  _25
REMARK   13  A    between atoms: _25  and  _26
REMARK   14  A    between atoms: _25  and  _28
REMARK   15  A    between atoms: _28  and  _29
REMARK   16  A    between atoms: _32  and  _34
REMARK   17  A    between atoms: _34  and  _35
REMARK   18  A    between atoms: _37  and  _39
REMARK   19  A    between atoms: _39  and  _40
REMARK   20  A    between atoms: _39  and  _42
REMARK   21  A    between atoms: _42  and  _43
REMARK   22  A    between atoms: _46  and  _48
REMARK   23  A    between atoms: _48  and  _49
REMARK   24  A    between atoms: _51  and  _53
REMARK   25  A    between atoms: _53  and  _54
REMARK   26  A    between atoms: _53  and  _56
REMARK   27  A    between atoms: _56  and  _57
REMARK   28  A    between atoms: _59  and  _61
REMARK   29  A    between atoms: _61  and  _62
REMARK   30  A    between atoms: _61  and  _64
REMARK   31  A    between atoms: _64  and  _65
REMARK   32  A    between atoms: _71  and  _73
REMARK   33  A    between atoms: _73  and  _74
REMARK   34  A    between atoms: _76  and  _78
REMARK   35  A    between atoms: _78  and  _79
REMARK   36  A    between atoms: _78  and  _81
REMARK   37  A    between atoms: _81  and  _82
REMARK   38  A    between atoms: _82  and  _83
REMARK   39  A    between atoms: _83  and  _84
REMARK   40  A    between atoms: _93  and  _95
REMARK   41  A    between atoms: _95  and  _96
REMARK   42  A    between atoms: _95  and  _98
REMARK   43  A    between atoms: _101  and  _103
REMARK   44  A    between atoms: _103  and  _104
REMARK   45  A    between atoms: _103  and  _106
REMARK   46  A    between atoms: _106  and  _107
REMARK   47  A    between atoms: _107  and  _108
REMARK   48  A    between atoms: _110  and  _112
REMARK   49  A    between atoms: _112  and  _113
REMARK   50  A    between atoms: _112  and  _115
REMARK   51  A    between atoms: _115  and  _116
REMARK   52  A    between atoms: _119  and  _121
REMARK   53  A    between atoms: _121  and  _122
REMARK   54  A    between atoms: _121  and  _124
REMARK   55  A    between atoms: _124  and  _125
REMARK   56  A    between atoms: _130  and  _131
REMARK   57  A    between atoms: _133  and  _135
REMARK   58  A    between atoms: _135  and  _136
REMARK   59  A    between atoms: _139  and  _141
REMARK   60  A    between atoms: _141  and  _142
REMARK   61  A    between atoms: _141  and  _144
REMARK   62  A    between atoms: _144  and  _145
REMARK   63  A    between atoms: _145  and  _146
REMARK   64  A    between atoms: _148  and  _150
REMARK   65  A    between atoms: _150  and  _151
REMARK   66  A    between atoms: _150  and  _153
REMARK   67  A    between atoms: _153  and  _154
REMARK   68  A    between atoms: _154  and  _155
REMARK   69  A    between atoms: _155  and  _156
REMARK   70  A    between atoms: _156  and  _157
REMARK   71  A    between atoms: _161  and  _163
REMARK   72  A    between atoms: _163  and  _164
REMARK   73  A    between atoms: _163  and  _166
REMARK   74  A    between atoms: _166  and  _167
REMARK   75  A    between atoms: _170  and  _172
REMARK   76  A    between atoms: _172  and  _173
REMARK   77  A    between atoms: _172  and  _175
REMARK   78  A    between atoms: _175  and  _176
REMARK   79  A    between atoms: _179  and  _181
REMARK   80  A    between atoms: _181  and  _182
REMARK   81  A    between atoms: _181  and  _184
REMARK   82  A    between atoms: _184  and  _185
REMARK   83  A    between atoms: _188  and  _190
REMARK   84  A    between atoms: _190  and  _191
REMARK   85  A    between atoms: _190  and  _193
REMARK   86  A    between atoms: _196  and  _198
REMARK   87  A    between atoms: _198  and  _199
REMARK   88  A    between atoms: _198  and  _201
REMARK   89  A    between atoms: _201  and  _202
REMARK   90  A    between atoms: _205  and  _207
REMARK   91  A    between atoms: _207  and  _208
REMARK   92  A    between atoms: _207  and  _210
REMARK   93  A    between atoms: _210  and  _211
REMARK   94  A    between atoms: _211  and  _212
REMARK   95  A    between atoms: _215  and  _217
REMARK   96  A    between atoms: _217  and  _218
REMARK   97  A    between atoms: _217  and  _220
REMARK   98  A    between atoms: _220  and  _221
REMARK   99  A    between atoms: _224  and  _226
REMARK  100  A    between atoms: _226  and  _227
REMARK  101  A    between atoms: _226  and  _229
REMARK  102  A    between atoms: _232  and  _234
REMARK  103  A    between atoms: _234  and  _235
REMARK  104  A    between atoms: _234  and  _237
REMARK  105  A    between atoms: _237  and  _238
REMARK  106  A    between atoms: _238  and  _239
REMARK  107  A    between atoms: _239  and  _240
REMARK  108  A    between atoms: _240  and  _241
REMARK  109  A    between atoms: _245  and  _247
REMARK  110  A    between atoms: _247  and  _248
REMARK  111  A    between atoms: _247  and  _250
REMARK  112  A    between atoms: _250  and  _251
REMARK  113  A    between atoms: _254  and  _256
REMARK  114  A    between atoms: _256  and  _257
REMARK  115  A    between atoms: _256  and  _259
REMARK  116  A    between atoms: _259  and  _260
REMARK  117  A    between atoms: _260  and  _261
REMARK  118  A    between atoms: _263  and  _265
REMARK  119  A    between atoms: _265  and  _266
REMARK  120  A    between atoms: _265  and  _268
REMARK  121  A    between atoms: _271  and  _273
REMARK  122  A    between atoms: _273  and  _274
REMARK  123  A    between atoms: _273  and  _276
REMARK  124  A    between atoms: _276  and  _277
REMARK  125  A    between atoms: _277  and  _278
REMARK  126  A    between atoms: _280  and  _282
REMARK  127  A    between atoms: _282  and  _283
REMARK  128  A    between atoms: _282  and  _285
REMARK  129  A    between atoms: _285  and  _286
REMARK  130  A    between atoms: _286  and  _287
REMARK  131  A    between atoms: _290  and  _292
REMARK  132  A    between atoms: _292  and  _293
REMARK  133  A    between atoms: _292  and  _295
REMARK  134  A    between atoms: _295  and  _296
REMARK  135  A    between atoms: _301  and  _302
REMARK  136  A    between atoms: _304  and  _306
REMARK  137  A    between atoms: _306  and  _307
REMARK  138  A    between atoms: _306  and  _309
REMARK  139  A    between atoms: _312  and  _314
REMARK  140  A    between atoms: _314  and  _315
REMARK  141  A    between atoms: _318  and  _320
REMARK  142  A    between atoms: _320  and  _321
REMARK  143  A    between atoms: _323  and  _325
REMARK  144  A    between atoms: _325  and  _326
REMARK  145  A    between atoms: _328  and  _330
REMARK  146  A    between atoms: _330  and  _331
REMARK  147  A    between atoms: _330  and  _333
REMARK  148  A    between atoms: _333  and  _334
REMARK  149  A    between atoms: _334  and  _335
REMARK  150  A    between atoms: _338  and  _340
REMARK  151  A    between atoms: _340  and  _341
REMARK  152  A    between atoms: _340  and  _343
REMARK  153  A    between atoms: _343  and  _344
REMARK  154  A    between atoms: _344  and  _345
REMARK  155  A    between atoms: _347  and  _349
REMARK  156  A    between atoms: _349  and  _350
REMARK  157  A    between atoms: _349  and  _352
REMARK  158  A    between atoms: _352  and  _353
REMARK  159  A    between atoms: _359  and  _361
REMARK  160  A    between atoms: _361  and  _362
REMARK  161  A    between atoms: _361  and  _364
REMARK  162  A    between atoms: _364  and  _365
REMARK  163  A    between atoms: _370  and  _371
REMARK  164  A    between atoms: _373  and  _375
REMARK  165  A    between atoms: _375  and  _376
REMARK  166  A    between atoms: _375  and  _378
REMARK  167  A    between atoms: _378  and  _379
REMARK  168  A    between atoms: _382  and  _384
REMARK  169  A    between atoms: _384  and  _385
REMARK  170  A    between atoms: _384  and  _387
REMARK  171  A    between atoms: _387  and  _388
REMARK  172  A    between atoms: _388  and  _389
REMARK  173  A    between atoms: _389  and  _390
REMARK  174  A    between atoms: _390  and  _391
REMARK  175  A    between atoms: _396  and  _397
REMARK  176  A    between atoms: _402  and  _404
REMARK  177  A    between atoms: _404  and  _405
REMARK  178  A    between atoms: _404  and  _407
REMARK  179  A    between atoms: _407  and  _408
REMARK  180  A    between atoms: _408  and  _409
REMARK  181  A    between atoms: _412  and  _414
REMARK  182  A    between atoms: _414  and  _415
REMARK  183  A    between atoms: _414  and  _417
REMARK  184  A    between atoms: _417  and  _418
REMARK  185  A    between atoms: _423  and  _425
REMARK  186  A    between atoms: _425  and  _426
REMARK  187  A    between atoms: _425  and  _428
REMARK  188  A    between atoms: _428  and  _429
REMARK  189  A    between atoms: _432  and  _434
REMARK  190  A    between atoms: _434  and  _435
REMARK  191  A    between atoms: _434  and  _437
REMARK  192  A    between atoms: _437  and  _438
REMARK  193  A    between atoms: _441  and  _443
REMARK  194  A    between atoms: _443  and  _444
REMARK  195  A    between atoms: _443  and  _446
REMARK  196  A    between atoms: _446  and  _447
REMARK  197  A    between atoms: _450  and  _452
REMARK  198  A    between atoms: _452  and  _453
REMARK  199  A    between atoms: _452  and  _455
REMARK  200  A    between atoms: _455  and  _456
REMARK  201  A    between atoms: _459  and  _461
REMARK  202  A    between atoms: _461  and  _462
REMARK  203  A    between atoms: _461  and  _464
REMARK  204  A    between atoms: _464  and  _465
REMARK  205  A    between atoms: _465  and  _466
REMARK  206  A    between atoms: _471  and  _473
REMARK  207  A    between atoms: _473  and  _474
REMARK  208  A    between atoms: _473  and  _476
REMARK  209  A    between atoms: _479  and  _481
REMARK  210  A    between atoms: _481  and  _482
REMARK  211  A    between atoms: _481  and  _484
REMARK  212  A    between atoms: _484  and  _485
REMARK  213  A    between atoms: _488  and  _490
REMARK  214  A    between atoms: _490  and  _491
REMARK  215  A    between atoms: _490  and  _493
REMARK  216  A    between atoms: _493  and  _494
REMARK  217  A    between atoms: _497  and  _499
REMARK  218  A    between atoms: _499  and  _500
REMARK  219  A    between atoms: _499  and  _502
REMARK  220  A    between atoms: _502  and  _503
REMARK  221  A    between atoms: _509  and  _511
REMARK  222  A    between atoms: _511  and  _512
REMARK  223  A    between atoms: _514  and  _516
REMARK  224  A    between atoms: _516  and  _517
REMARK  225  A    between atoms: _516  and  _519
REMARK  226  A    between atoms: _519  and  _520
REMARK  227  A    between atoms: _523  and  _525
REMARK  228  A    between atoms: _525  and  _526
REMARK  229  A    between atoms: _525  and  _528
REMARK  230  A    between atoms: _528  and  _529
REMARK  231  A    between atoms: _534  and  _536
REMARK  232  A    between atoms: _536  and  _537
REMARK  233  A    between atoms: _536  and  _539
REMARK  234  A    between atoms: _539  and  _540
REMARK  235  A    between atoms: _546  and  _548
REMARK  236  A    between atoms: _548  and  _549
REMARK  237  A    between atoms: _548  and  _551
REMARK  238  A    between atoms: _551  and  _552
REMARK  239  A    between atoms: _555  and  _557
REMARK  240  A    between atoms: _557  and  _558
REMARK  241  A    between atoms: _557  and  _560
REMARK  242  A    between atoms: _560  and  _561
REMARK  243  A    between atoms: _566  and  _567
REMARK  244  A    between atoms: _569  and  _571
REMARK  245  A    between atoms: _571  and  _572
REMARK  246  A    between atoms: _571  and  _574
REMARK  247  A    between atoms: _574  and  _575
REMARK  248  A    between atoms: _575  and  _576
REMARK  249  A    between atoms: _576  and  _577
REMARK  250  A    between atoms: _586  and  _588
REMARK  251  A    between atoms: _588  and  _589
REMARK  252  A    between atoms: _588  and  _591
REMARK  253  A    between atoms: _591  and  _592
REMARK  254  A    between atoms: _592  and  _593
REMARK  255  A    between atoms: _593  and  _594
REMARK  256  A    between atoms: _603  and  _605
REMARK  257  A    between atoms: _605  and  _606
REMARK  258  A    between atoms: _605  and  _608
REMARK  259  A    between atoms: _608  and  _609
REMARK  260  A    between atoms: _614  and  _616
REMARK  261  A    between atoms: _616  and  _617
REMARK                            x       y       z     vdW  Elec       q    Type
REMARK                         _______ _______ _______ _____ _____    ______ ____
ROOT
ATOM      1  O   HOH     1      15.629   7.541   5.239  0.00  0.00    +0.000 OA
ENDROOT
TORSDOF 0
REMARK  Name = ../refined-set-2016/1ydt/1ydt_pocket.pdb
REMARK  261 active torsions:
REMARK  status: ('A' for Active; 'I' for Inactive)
REMARK    1  A    between atoms: _1  and  _3
REMARK    2  A    between atoms: _3  and  _4
REMARK    3  A    between atoms: _3  and  _6
REMARK    4  A    between atoms: _6  and  _7
REMARK    5  A    between atoms: _7  and  _8
REMARK    6  A    between atoms: _8  and  _9
REMARK    7  A    between atoms: _9  and  _10
REMARK    8  A    between atoms: _14  and  _16
REMARK    9  A    between atoms: _16  and  _17
REMARK   10  A    between atoms: _16  and  _19
REMARK   11  A    between atoms: _19  and  _20
REMARK   12  A    between atoms: _23  and  _25
REMARK   13  A    between atoms: _25  and  _26
REMARK   14  A    between atoms: _25  and  _28
REMARK   15  A    between atoms: _28  and  _29
REMARK   16  A    between atoms: _32  and  _34
REMARK   17  A    between atoms: _34  and  _35
REMARK   18  A    between atoms: _37  and  _39
REMARK   19  A    between atoms: _39  and  _40
REMARK   20  A    between atoms: _39  and  _42
REMARK   21  A    between atoms: _42  and  _43
REMARK   22  A    between atoms: _46  and  _48
REMARK   23  A    between atoms: _48  and  _49
REMARK   24  A    between atoms: _51  and  _53
REMARK   25  A    between atoms: _53  and  _54
REMARK   26  A    between atoms: _53  and  _56
REMARK   27  A    between atoms: _56  and  _57
REMARK   28  A    between atoms: _59  and  _61
REMARK   29  A    between atoms: _61  and  _62
REMARK   30  A    between atoms: _61  and  _64
REMARK   31  A    between atoms: _64  and  _65
REMARK   32  A    between atoms: _71  and  _73
REMARK   33  A    between atoms: _73  and  _74
REMARK   34  A    between atoms: _76  and  _78
REMARK   35  A    between atoms: _78  and  _79
REMARK   36  A    between atoms: _78  and  _81
REMARK   37  A    between atoms: _81  and  _82
REMARK   38  A    between atoms: _82  and  _83
REMARK   39  A    between atoms: _83  and  _84
REMARK   40  A    between atoms: _93  and  _95
REMARK   41  A    between atoms: _95  and  _96
REMARK   42  A    between atoms: _95  and  _98
REMARK   43  A    between atoms: _101  and  _103
REMARK   44  A    between atoms: _103  and  _104
REMARK   45  A    between atoms: _103  and  _106
REMARK   46  A    between atoms: _106  and  _107
REMARK   47  A    between atoms: _107  and  _108
REMARK   48  A    between atoms: _110  and  _112
REMARK   49  A    between atoms: _112  and  _113
REMARK   50  A    between atoms: _112  and  _115
REMARK   51  A    between atoms: _115  and  _116
REMARK   52  A    between atoms: _119  and  _121
REMARK   53  A    between atoms: _121  and  _122
REMARK   54  A    between atoms: _121  and  _124
REMARK   55  A    between atoms: _124  and  _125
REMARK   56  A    between atoms: _130  and  _131
REMARK   57  A    between atoms: _133  and  _135
REMARK   58  A    between atoms: _135  and  _136
REMARK   59  A    between atoms: _139  and  _141
REMARK   60  A    between atoms: _141  and  _142
REMARK   61  A    between atoms: _141  and  _144
REMARK   62  A    between atoms: _144  and  _145
REMARK   63  A    between atoms: _145  and  _146
REMARK   64  A    between atoms: _148  and  _150
REMARK   65  A    between atoms: _150  and  _151
REMARK   66  A    between atoms: _150  and  _153
REMARK   67  A    between atoms: _153  and  _154
REMARK   68  A    between atoms: _154  and  _155
REMARK   69  A    between atoms: _155  and  _156
REMARK   70  A    between atoms: _156  and  _157
REMARK   71  A    between atoms: _161  and  _163
REMARK   72  A    between atoms: _163  and  _164
REMARK   73  A    between atoms: _163  and  _166
REMARK   74  A    between atoms: _166  and  _167
REMARK   75  A    between atoms: _170  and  _172
REMARK   76  A    between atoms: _172  and  _173
REMARK   77  A    between atoms: _172  and  _175
REMARK   78  A    between atoms: _175  and  _176
REMARK   79  A    between atoms: _179  and  _181
REMARK   80  A    between atoms: _181  and  _182
REMARK   81  A    between atoms: _181  and  _184
REMARK   82  A    between atoms: _184  and  _185
REMARK   83  A    between atoms: _188  and  _190
REMARK   84  A    between atoms: _190  and  _191
REMARK   85  A    between atoms: _190  and  _193
REMARK   86  A    between atoms: _196  and  _198
REMARK   87  A    between atoms: _198  and  _199
REMARK   88  A    between atoms: _198  and  _201
REMARK   89  A    between atoms: _201  and  _202
REMARK   90  A    between atoms: _205  and  _207
REMARK   91  A    between atoms: _207  and  _208
REMARK   92  A    between atoms: _207  and  _210
REMARK   93  A    between atoms: _210  and  _211
REMARK   94  A    between atoms: _211  and  _212
REMARK   95  A    between atoms: _215  and  _217
REMARK   96  A    between atoms: _217  and  _218
REMARK   97  A    between atoms: _217  and  _220
REMARK   98  A    between atoms: _220  and  _221
REMARK   99  A    between atoms: _224  and  _226
REMARK  100  A    between atoms: _226  and  _227
REMARK  101  A    between atoms: _226  and  _229
REMARK  102  A    between atoms: _232  and  _234
REMARK  103  A    between atoms: _234  and  _235
REMARK  104  A    between atoms: _234  and  _237
REMARK  105  A    between atoms: _237  and  _238
REMARK  106  A    between atoms: _238  and  _239
REMARK  107  A    between atoms: _239  and  _240
REMARK  108  A    between atoms: _240  and  _241
REMARK  109  A    between atoms: _245  and  _247
REMARK  110  A    between atoms: _247  and  _248
REMARK  111  A    between atoms: _247  and  _250
REMARK  112  A    between atoms: _250  and  _251
REMARK  113  A    between atoms: _254  and  _256
REMARK  114  A    between atoms: _256  and  _257
REMARK  115  A    between atoms: _256  and  _259
REMARK  116  A    between atoms: _259  and  _260
REMARK  117  A    between atoms: _260  and  _261
REMARK  118  A    between atoms: _263  and  _265
REMARK  119  A    between atoms: _265  and  _266
REMARK  120  A    between atoms: _265  and  _268
REMARK  121  A    between atoms: _271  and  _273
REMARK  122  A    between atoms: _273  and  _274
REMARK  123  A    between atoms: _273  and  _276
REMARK  124  A    between atoms: _276  and  _277
REMARK  125  A    between atoms: _277  and  _278
REMARK  126  A    between atoms: _280  and  _282
REMARK  127  A    between atoms: _282  and  _283
REMARK  128  A    between atoms: _282  and  _285
REMARK  129  A    between atoms: _285  and  _286
REMARK  130  A    between atoms: _286  and  _287
REMARK  131  A    between atoms: _290  and  _292
REMARK  132  A    between atoms: _292  and  _293
REMARK  133  A    between atoms: _292  and  _295
REMARK  134  A    between atoms: _295  and  _296
REMARK  135  A    between atoms: _301  and  _302
REMARK  136  A    between atoms: _304  and  _306
REMARK  137  A    between atoms: _306  and  _307
REMARK  138  A    between atoms: _306  and  _309
REMARK  139  A    between atoms: _312  and  _314
REMARK  140  A    between atoms: _314  and  _315
REMARK  141  A    between atoms: _318  and  _320
REMARK  142  A    between atoms: _320  and  _321
REMARK  143  A    between atoms: _323  and  _325
REMARK  144  A    between atoms: _325  and  _326
REMARK  145  A    between atoms: _328  and  _330
REMARK  146  A    between atoms: _330  and  _331
REMARK  147  A    between atoms: _330  and  _333
REMARK  148  A    between atoms: _333  and  _334
REMARK  149  A    between atoms: _334  and  _335
REMARK  150  A    between atoms: _338  and  _340
REMARK  151  A    between atoms: _340  and  _341
REMARK  152  A    between atoms: _340  and  _343
REMARK  153  A    between atoms: _343  and  _344
REMARK  154  A    between atoms: _344  and  _345
REMARK  155  A    between atoms: _347  and  _349
REMARK  156  A    between atoms: _349  and  _350
REMARK  157  A    between atoms: _349  and  _352
REMARK  158  A    between atoms: _352  and  _353
REMARK  159  A    between atoms: _359  and  _361
REMARK  160  A    between atoms: _361  and  _362
REMARK  161  A    between atoms: _361  and  _364
REMARK  162  A    between atoms: _364  and  _365
REMARK  163  A    between atoms: _370  and  _371
REMARK  164  A    between atoms: _373  and  _375
REMARK  165  A    between atoms: _375  and  _376
REMARK  166  A    between atoms: _375  and  _378
REMARK  167  A    between atoms: _378  and  _379
REMARK  168  A    between atoms: _382  and  _384
REMARK  169  A    between atoms: _384  and  _385
REMARK  170  A    between atoms: _384  and  _387
REMARK  171  A    between atoms: _387  and  _388
REMARK  172  A    between atoms: _388  and  _389
REMARK  173  A    between atoms: _389  and  _390
REMARK  174  A    between atoms: _390  and  _391
REMARK  175  A    between atoms: _396  and  _397
REMARK  176  A    between atoms: _402  and  _404
REMARK  177  A    between atoms: _404  and  _405
REMARK  178  A    between atoms: _404  and  _407
REMARK  179  A    between atoms: _407  and  _408
REMARK  180  A    between atoms: _408  and  _409
REMARK  181  A    between atoms: _412  and  _414
REMARK  182  A    between atoms: _414  and  _415
REMARK  183  A    between atoms: _414  and  _417
REMARK  184  A    between atoms: _417  and  _418
REMARK  185  A    between atoms: _423  and  _425
REMARK  186  A    between atoms: _425  and  _426
REMARK  187  A    between atoms: _425  and  _428
REMARK  188  A    between atoms: _428  and  _429
REMARK  189  A    between atoms: _432  and  _434
REMARK  190  A    between atoms: _434  and  _435
REMARK  191  A    between atoms: _434  and  _437
REMARK  192  A    between atoms: _437  and  _438
REMARK  193  A    between atoms: _441  and  _443
REMARK  194  A    between atoms: _443  and  _444
REMARK  195  A    between atoms: _443  and  _446
REMARK  196  A    between atoms: _446  and  _447
REMARK  197  A    between atoms: _450  and  _452
REMARK  198  A    between atoms: _452  and  _453
REMARK  199  A    between atoms: _452  and  _455
REMARK  200  A    between atoms: _455  and  _456
REMARK  201  A    between atoms: _459  and  _461
REMARK  202  A    between atoms: _461  and  _462
REMARK  203  A    between atoms: _461  and  _464
REMARK  204  A    between atoms: _464  and  _465
REMARK  205  A    between atoms: _465  and  _466
REMARK  206  A    between atoms: _471  and  _473
REMARK  207  A    between atoms: _473  and  _474
REMARK  208  A    between atoms: _473  and  _476
REMARK  209  A    between atoms: _479  and  _481
REMARK  210  A    between atoms: _481  and  _482
REMARK  211  A    between atoms: _481  and  _484
REMARK  212  A    between atoms: _484  and  _485
REMARK  213  A    between atoms: _488  and  _490
REMARK  214  A    between atoms: _490  and  _491
REMARK  215  A    between atoms: _490  and  _493
REMARK  216  A    between atoms: _493  and  _494
REMARK  217  A    between atoms: _497  and  _499
REMARK  218  A    between atoms: _499  and  _500
REMARK  219  A    between atoms: _499  and  _502
REMARK  220  A    between atoms: _502  and  _503
REMARK  221  A    between atoms: _509  and  _511
REMARK  222  A    between atoms: _511  and  _512
REMARK  223  A    between atoms: _514  and  _516
REMARK  224  A    between atoms: _516  and  _517
REMARK  225  A    between atoms: _516  and  _519
REMARK  226  A    between atoms: _519  and  _520
REMARK  227  A    between atoms: _523  and  _525
REMARK  228  A    between atoms: _525  and  _526
REMARK  229  A    between atoms: _525  and  _528
REMARK  230  A    between atoms: _528  and  _529
REMARK  231  A    between atoms: _534  and  _536
REMARK  232  A    between atoms: _536  and  _537
REMARK  233  A    between atoms: _536  and  _539
REMARK  234  A    between atoms: _539  and  _540
REMARK  235  A    between atoms: _546  and  _548
REMARK  236  A    between atoms: _548  and  _549
REMARK  237  A    between atoms: _548  and  _551
REMARK  238  A    between atoms: _551  and  _552
REMARK  239  A    between atoms: _555  and  _557
REMARK  240  A    between atoms: _557  and  _558
REMARK  241  A    between atoms: _557  and  _560
REMARK  242  A    between atoms: _560  and  _561
REMARK  243  A    between atoms: _566  and  _567
REMARK  244  A    between atoms: _569  and  _571
REMARK  245  A    between atoms: _571  and  _572
REMARK  246  A    between atoms: _571  and  _574
REMARK  247  A    between atoms: _574  and  _575
REMARK  248  A    between atoms: _575  and  _576
REMARK  249  A    between atoms: _576  and  _577
REMARK  250  A    between atoms: _586  and  _588
REMARK  251  A    between atoms: _588  and  _589
REMARK  252  A    between atoms: _588  and  _591
REMARK  253  A    between atoms: _591  and  _592
REMARK  254  A    between atoms: _592  and  _593
REMARK  255  A    between atoms: _593  and  _594
REMARK  256  A    between atoms: _603  and  _605
REMARK  257  A    between atoms: _605  and  _606
REMARK  258  A    between atoms: _605  and  _608
REMARK  259  A    between atoms: _608  and  _609
REMARK  260  A    between atoms: _614  and  _616
REMARK  261  A    between atoms: _616  and  _617
REMARK                            x       y       z     vdW  Elec       q    Type
REMARK                         _______ _______ _______ _____ _____    ______ ____
ROOT
ATOM      1  O   HOH     1       8.615   9.117   7.101  0.00  0.00    +0.000 OA
ENDROOT
TORSDOF 0
REMARK  Name = ../refined-set-2016/1ydt/1ydt_pocket.pdb
REMARK  261 active torsions:
REMARK  status: ('A' for Active; 'I' for Inactive)
REMARK    1  A    between atoms: _1  and  _3
REMARK    2  A    between atoms: _3  and  _4
REMARK    3  A    between atoms: _3  and  _6
REMARK    4  A    between atoms: _6  and  _7
REMARK    5  A    between atoms: _7  and  _8
REMARK    6  A    between atoms: _8  and  _9
REMARK    7  A    between atoms: _9  and  _10
REMARK    8  A    between atoms: _14  and  _16
REMARK    9  A    between atoms: _16  and  _17
REMARK   10  A    between atoms: _16  and  _19
REMARK   11  A    between atoms: _19  and  _20
REMARK   12  A    between atoms: _23  and  _25
REMARK   13  A    between atoms: _25  and  _26
REMARK   14  A    between atoms: _25  and  _28
REMARK   15  A    between atoms: _28  and  _29
REMARK   16  A    between atoms: _32  and  _34
REMARK   17  A    between atoms: _34  and  _35
REMARK   18  A    between atoms: _37  and  _39
REMARK   19  A    between atoms: _39  and  _40
REMARK   20  A    between atoms: _39  and  _42
REMARK   21  A    between atoms: _42  and  _43
REMARK   22  A    between atoms: _46  and  _48
REMARK   23  A    between atoms: _48  and  _49
REMARK   24  A    between atoms: _51  and  _53
REMARK   25  A    between atoms: _53  and  _54
REMARK   26  A    between atoms: _53  and  _56
REMARK   27  A    between atoms: _56  and  _57
REMARK   28  A    between atoms: _59  and  _61
REMARK   29  A    between atoms: _61  and  _62
REMARK   30  A    between atoms: _61  and  _64
REMARK   31  A    between atoms: _64  and  _65
REMARK   32  A    between atoms: _71  and  _73
REMARK   33  A    between atoms: _73  and  _74
REMARK   34  A    between atoms: _76  and  _78
REMARK   35  A    between atoms: _78  and  _79
REMARK   36  A    between atoms: _78  and  _81
REMARK   37  A    between atoms: _81  and  _82
REMARK   38  A    between atoms: _82  and  _83
REMARK   39  A    between atoms: _83  and  _84
REMARK   40  A    between atoms: _93  and  _95
REMARK   41  A    between atoms: _95  and  _96
REMARK   42  A    between atoms: _95  and  _98
REMARK   43  A    between atoms: _101  and  _103
REMARK   44  A    between atoms: _103  and  _104
REMARK   45  A    between atoms: _103  and  _106
REMARK   46  A    between atoms: _106  and  _107
REMARK   47  A    between atoms: _107  and  _108
REMARK   48  A    between atoms: _110  and  _112
REMARK   49  A    between atoms: _112  and  _113
REMARK   50  A    between atoms: _112  and  _115
REMARK   51  A    between atoms: _115  and  _116
REMARK   52  A    between atoms: _119  and  _121
REMARK   53  A    between atoms: _121  and  _122
REMARK   54  A    between atoms: _121  and  _124
REMARK   55  A    between atoms: _124  and  _125
REMARK   56  A    between atoms: _130  and  _131
REMARK   57  A    between atoms: _133  and  _135
REMARK   58  A    between atoms: _135  and  _136
REMARK   59  A    between atoms: _139  and  _141
REMARK   60  A    between atoms: _141  and  _142
REMARK   61  A    between atoms: _141  and  _144
REMARK   62  A    between atoms: _144  and  _145
REMARK   63  A    between atoms: _145  and  _146
REMARK   64  A    between atoms: _148  and  _150
REMARK   65  A    between atoms: _150  and  _151
REMARK   66  A    between atoms: _150  and  _153
REMARK   67  A    between atoms: _153  and  _154
REMARK   68  A    between atoms: _154  and  _155
REMARK   69  A    between atoms: _155  and  _156
REMARK   70  A    between atoms: _156  and  _157
REMARK   71  A    between atoms: _161  and  _163
REMARK   72  A    between atoms: _163  and  _164
REMARK   73  A    between atoms: _163  and  _166
REMARK   74  A    between atoms: _166  and  _167
REMARK   75  A    between atoms: _170  and  _172
REMARK   76  A    between atoms: _172  and  _173
REMARK   77  A    between atoms: _172  and  _175
REMARK   78  A    between atoms: _175  and  _176
REMARK   79  A    between atoms: _179  and  _181
REMARK   80  A    between atoms: _181  and  _182
REMARK   81  A    between atoms: _181  and  _184
REMARK   82  A    between atoms: _184  and  _185
REMARK   83  A    between atoms: _188  and  _190
REMARK   84  A    between atoms: _190  and  _191
REMARK   85  A    between atoms: _190  and  _193
REMARK   86  A    between atoms: _196  and  _198
REMARK   87  A    between atoms: _198  and  _199
REMARK   88  A    between atoms: _198  and  _201
REMARK   89  A    between atoms: _201  and  _202
REMARK   90  A    between atoms: _205  and  _207
REMARK   91  A    between atoms: _207  and  _208
REMARK   92  A    between atoms: _207  and  _210
REMARK   93  A    between atoms: _210  and  _211
REMARK   94  A    between atoms: _211  and  _212
REMARK   95  A    between atoms: _215  and  _217
REMARK   96  A    between atoms: _217  and  _218
REMARK   97  A    between atoms: _217  and  _220
REMARK   98  A    between atoms: _220  and  _221
REMARK   99  A    between atoms: _224  and  _226
REMARK  100  A    between atoms: _226  and  _227
REMARK  101  A    between atoms: _226  and  _229
REMARK  102  A    between atoms: _232  and  _234
REMARK  103  A    between atoms: _234  and  _235
REMARK  104  A    between atoms: _234  and  _237
REMARK  105  A    between atoms: _237  and  _238
REMARK  106  A    between atoms: _238  and  _239
REMARK  107  A    between atoms: _239  and  _240
REMARK  108  A    between atoms: _240  and  _241
REMARK  109  A    between atoms: _245  and  _247
REMARK  110  A    between atoms: _247  and  _248
REMARK  111  A    between atoms: _247  and  _250
REMARK  112  A    between atoms: _250  and  _251
REMARK  113  A    between atoms: _254  and  _256
REMARK  114  A    between atoms: _256  and  _257
REMARK  115  A    between atoms: _256  and  _259
REMARK  116  A    between atoms: _259  and  _260
REMARK  117  A    between atoms: _260  and  _261
REMARK  118  A    between atoms: _263  and  _265
REMARK  119  A    between atoms: _265  and  _266
REMARK  120  A    between atoms: _265  and  _268
REMARK  121  A    between atoms: _271  and  _273
REMARK  122  A    between atoms: _273  and  _274
REMARK  123  A    between atoms: _273  and  _276
REMARK  124  A    between atoms: _276  and  _277
REMARK  125  A    between atoms: _277  and  _278
REMARK  126  A    between atoms: _280  and  _282
REMARK  127  A    between atoms: _282  and  _283
REMARK  128  A    between atoms: _282  and  _285
REMARK  129  A    between atoms: _285  and  _286
REMARK  130  A    between atoms: _286  and  _287
REMARK  131  A    between atoms: _290  and  _292
REMARK  132  A    between atoms: _292  and  _293
REMARK  133  A    between atoms: _292  and  _295
REMARK  134  A    between atoms: _295  and  _296
REMARK  135  A    between atoms: _301  and  _302
REMARK  136  A    between atoms: _304  and  _306
REMARK  137  A    between atoms: _306  and  _307
REMARK  138  A    between atoms: _306  and  _309
REMARK  139  A    between atoms: _312  and  _314
REMARK  140  A    between atoms: _314  and  _315
REMARK  141  A    between atoms: _318  and  _320
REMARK  142  A    between atoms: _320  and  _321
REMARK  143  A    between atoms: _323  and  _325
REMARK  144  A    between atoms: _325  and  _326
REMARK  145  A    between atoms: _328  and  _330
REMARK  146  A    between atoms: _330  and  _331
REMARK  147  A    between atoms: _330  and  _333
REMARK  148  A    between atoms: _333  and  _334
REMARK  149  A    between atoms: _334  and  _335
REMARK  150  A    between atoms: _338  and  _340
REMARK  151  A    between atoms: _340  and  _341
REMARK  152  A    between atoms: _340  and  _343
REMARK  153  A    between atoms: _343  and  _344
REMARK  154  A    between atoms: _344  and  _345
REMARK  155  A    between atoms: _347  and  _349
REMARK  156  A    between atoms: _349  and  _350
REMARK  157  A    between atoms: _349  and  _352
REMARK  158  A    between atoms: _352  and  _353
REMARK  159  A    between atoms: _359  and  _361
REMARK  160  A    between atoms: _361  and  _362
REMARK  161  A    between atoms: _361  and  _364
REMARK  162  A    between atoms: _364  and  _365
REMARK  163  A    between atoms: _370  and  _371
REMARK  164  A    between atoms: _373  and  _375
REMARK  165  A    between atoms: _375  and  _376
REMARK  166  A    between atoms: _375  and  _378
REMARK  167  A    between atoms: _378  and  _379
REMARK  168  A    between atoms: _382  and  _384
REMARK  169  A    between atoms: _384  and  _385
REMARK  170  A    between atoms: _384  and  _387
REMARK  171  A    between atoms: _387  and  _388
REMARK  172  A    between atoms: _388  and  _389
REMARK  173  A    between atoms: _389  and  _390
REMARK  174  A    between atoms: _390  and  _391
REMARK  175  A    between atoms: _396  and  _397
REMARK  176  A    between atoms: _402  and  _404
REMARK  177  A    between atoms: _404  and  _405
REMARK  178  A    between atoms: _404  and  _407
REMARK  179  A    between atoms: _407  and  _408
REMARK  180  A    between atoms: _408  and  _409
REMARK  181  A    between atoms: _412  and  _414
REMARK  182  A    between atoms: _414  and  _415
REMARK  183  A    between atoms: _414  and  _417
REMARK  184  A    between atoms: _417  and  _418
REMARK  185  A    between atoms: _423  and  _425
REMARK  186  A    between atoms: _425  and  _426
REMARK  187  A    between atoms: _425  and  _428
REMARK  188  A    between atoms: _428  and  _429
REMARK  189  A    between atoms: _432  and  _434
REMARK  190  A    between atoms: _434  and  _435
REMARK  191  A    between atoms: _434  and  _437
REMARK  192  A    between atoms: _437  and  _438
REMARK  193  A    between atoms: _441  and  _443
REMARK  194  A    between atoms: _443  and  _444
REMARK  195  A    between atoms: _443  and  _446
REMARK  196  A    between atoms: _446  and  _447
REMARK  197  A    between atoms: _450  and  _452
REMARK  198  A    between atoms: _452  and  _453
REMARK  199  A    between atoms: _452  and  _455
REMARK  200  A    between atoms: _455  and  _456
REMARK  201  A    between atoms: _459  and  _461
REMARK  202  A    between atoms: _461  and  _462
REMARK  203  A    between atoms: _461  and  _464
REMARK  204  A    between atoms: _464  and  _465
REMARK  205  A    between atoms: _465  and  _466
REMARK  206  A    between atoms: _471  and  _473
REMARK  207  A    between atoms: _473  and  _474
REMARK  208  A    between atoms: _473  and  _476
REMARK  209  A    between atoms: _479  and  _481
REMARK  210  A    between atoms: _481  and  _482
REMARK  211  A    between atoms: _481  and  _484
REMARK  212  A    between atoms: _484  and  _485
REMARK  213  A    between atoms: _488  and  _490
REMARK  214  A    between atoms: _490  and  _491
REMARK  215  A    between atoms: _490  and  _493
REMARK  216  A    between atoms: _493  and  _494
REMARK  217  A    between atoms: _497  and  _499
REMARK  218  A    between atoms: _499  and  _500
REMARK  219  A    between atoms: _499  and  _502
REMARK  220  A    between atoms: _502  and  _503
REMARK  221  A    between atoms: _509  and  _511
REMARK  222  A    between atoms: _511  and  _512
REMARK  223  A    between atoms: _514  and  _516
REMARK  224  A    between atoms: _516  and  _517
REMARK  225  A    between atoms: _516  and  _519
REMARK  226  A    between atoms: _519  and  _520
REMARK  227  A    between atoms: _523  and  _525
REMARK  228  A    between atoms: _525  and  _526
REMARK  229  A    between atoms: _525  and  _528
REMARK  230  A    between atoms: _528  and  _529
REMARK  231  A    between atoms: _534  and  _536
REMARK  232  A    between atoms: _536  and  _537
REMARK  233  A    between atoms: _536  and  _539
REMARK  234  A    between atoms: _539  and  _540
REMARK  235  A    between atoms: _546  and  _548
REMARK  236  A    between atoms: _548  and  _549
REMARK  237  A    between atoms: _548  and  _551
REMARK  238  A    between atoms: _551  and  _552
REMARK  239  A    between atoms: _555  and  _557
REMARK  240  A    between atoms: _557  and  _558
REMARK  241  A    between atoms: _557  and  _560
REMARK  242  A    between atoms: _560  and  _561
REMARK  243  A    between atoms: _566  and  _567
REMARK  244  A    between atoms: _569  and  _571
REMARK  245  A    between atoms: _571  and  _572
REMARK  246  A    between atoms: _571  and  _574
REMARK  247  A    between atoms: _574  and  _575
REMARK  248  A    between atoms: _575  and  _576
REMARK  249  A    between atoms: _576  and  _577
REMARK  250  A    between atoms: _586  and  _588
REMARK  251  A    between atoms: _588  and  _589
REMARK  252  A    between atoms: _588  and  _591
REMARK  253  A    between atoms: _591  and  _592
REMARK  254  A    between atoms: _592  and  _593
REMARK  255  A    between atoms: _593  and  _594
REMARK  256  A    between atoms: _603  and  _605
REMARK  257  A    between atoms: _605  and  _606
REMARK  258  A    between atoms: _605  and  _608
REMARK  259  A    between atoms: _608  and  _609
REMARK  260  A    between atoms: _614  and  _616
REMARK  261  A    between atoms: _616  and  _617
REMARK                            x       y       z     vdW  Elec       q    Type
REMARK                         _______ _______ _______ _____ _____    ______ ____
ROOT
ATOM      1  O   HOH     1      14.708  10.450   6.464  0.00  0.00    +0.000 OA
ENDROOT
TORSDOF 0
REMARK  Name = ../refined-set-2016/1ydt/1ydt_pocket.pdb
REMARK  261 active torsions:
REMARK  status: ('A' for Active; 'I' for Inactive)
REMARK    1  A    between atoms: _1  and  _3
REMARK    2  A    between atoms: _3  and  _4
REMARK    3  A    between atoms: _3  and  _6
REMARK    4  A    between atoms: _6  and  _7
REMARK    5  A    between atoms: _7  and  _8
REMARK    6  A    between atoms: _8  and  _9
REMARK    7  A    between atoms: _9  and  _10
REMARK    8  A    between atoms: _14  and  _16
REMARK    9  A    between atoms: _16  and  _17
REMARK   10  A    between atoms: _16  and  _19
REMARK   11  A    between atoms: _19  and  _20
REMARK   12  A    between atoms: _23  and  _25
REMARK   13  A    between atoms: _25  and  _26
REMARK   14  A    between atoms: _25  and  _28
REMARK   15  A    between atoms: _28  and  _29
REMARK   16  A    between atoms: _32  and  _34
REMARK   17  A    between atoms: _34  and  _35
REMARK   18  A    between atoms: _37  and  _39
REMARK   19  A    between atoms: _39  and  _40
REMARK   20  A    between atoms: _39  and  _42
REMARK   21  A    between atoms: _42  and  _43
REMARK   22  A    between atoms: _46  and  _48
REMARK   23  A    between atoms: _48  and  _49
REMARK   24  A    between atoms: _51  and  _53
REMARK   25  A    between atoms: _53  and  _54
REMARK   26  A    between atoms: _53  and  _56
REMARK   27  A    between atoms: _56  and  _57
REMARK   28  A    between atoms: _59  and  _61
REMARK   29  A    between atoms: _61  and  _62
REMARK   30  A    between atoms: _61  and  _64
REMARK   31  A    between atoms: _64  and  _65
REMARK   32  A    between atoms: _71  and  _73
REMARK   33  A    between atoms: _73  and  _74
REMARK   34  A    between atoms: _76  and  _78
REMARK   35  A    between atoms: _78  and  _79
REMARK   36  A    between atoms: _78  and  _81
REMARK   37  A    between atoms: _81  and  _82
REMARK   38  A    between atoms: _82  and  _83
REMARK   39  A    between atoms: _83  and  _84
REMARK   40  A    between atoms: _93  and  _95
REMARK   41  A    between atoms: _95  and  _96
REMARK   42  A    between atoms: _95  and  _98
REMARK   43  A    between atoms: _101  and  _103
REMARK   44  A    between atoms: _103  and  _104
REMARK   45  A    between atoms: _103  and  _106
REMARK   46  A    between atoms: _106  and  _107
REMARK   47  A    between atoms: _107  and  _108
REMARK   48  A    between atoms: _110  and  _112
REMARK   49  A    between atoms: _112  and  _113
REMARK   50  A    between atoms: _112  and  _115
REMARK   51  A    between atoms: _115  and  _116
REMARK   52  A    between atoms: _119  and  _121
REMARK   53  A    between atoms: _121  and  _122
REMARK   54  A    between atoms: _121  and  _124
REMARK   55  A    between atoms: _124  and  _125
REMARK   56  A    between atoms: _130  and  _131
REMARK   57  A    between atoms: _133  and  _135
REMARK   58  A    between atoms: _135  and  _136
REMARK   59  A    between atoms: _139  and  _141
REMARK   60  A    between atoms: _141  and  _142
REMARK   61  A    between atoms: _141  and  _144
REMARK   62  A    between atoms: _144  and  _145
REMARK   63  A    between atoms: _145  and  _146
REMARK   64  A    between atoms: _148  and  _150
REMARK   65  A    between atoms: _150  and  _151
REMARK   66  A    between atoms: _150  and  _153
REMARK   67  A    between atoms: _153  and  _154
REMARK   68  A    between atoms: _154  and  _155
REMARK   69  A    between atoms: _155  and  _156
REMARK   70  A    between atoms: _156  and  _157
REMARK   71  A    between atoms: _161  and  _163
REMARK   72  A    between atoms: _163  and  _164
REMARK   73  A    between atoms: _163  and  _166
REMARK   74  A    between atoms: _166  and  _167
REMARK   75  A    between atoms: _170  and  _172
REMARK   76  A    between atoms: _172  and  _173
REMARK   77  A    between atoms: _172  and  _175
REMARK   78  A    between atoms: _175  and  _176
REMARK   79  A    between atoms: _179  and  _181
REMARK   80  A    between atoms: _181  and  _182
REMARK   81  A    between atoms: _181  and  _184
REMARK   82  A    between atoms: _184  and  _185
REMARK   83  A    between atoms: _188  and  _190
REMARK   84  A    between atoms: _190  and  _191
REMARK   85  A    between atoms: _190  and  _193
REMARK   86  A    between atoms: _196  and  _198
REMARK   87  A    between atoms: _198  and  _199
REMARK   88  A    between atoms: _198  and  _201
REMARK   89  A    between atoms: _201  and  _202
REMARK   90  A    between atoms: _205  and  _207
REMARK   91  A    between atoms: _207  and  _208
REMARK   92  A    between atoms: _207  and  _210
REMARK   93  A    between atoms: _210  and  _211
REMARK   94  A    between atoms: _211  and  _212
REMARK   95  A    between atoms: _215  and  _217
REMARK   96  A    between atoms: _217  and  _218
REMARK   97  A    between atoms: _217  and  _220
REMARK   98  A    between atoms: _220  and  _221
REMARK   99  A    between atoms: _224  and  _226
REMARK  100  A    between atoms: _226  and  _227
REMARK  101  A    between atoms: _226  and  _229
REMARK  102  A    between atoms: _232  and  _234
REMARK  103  A    between atoms: _234  and  _235
REMARK  104  A    between atoms: _234  and  _237
REMARK  105  A    between atoms: _237  and  _238
REMARK  106  A    between atoms: _238  and  _239
REMARK  107  A    between atoms: _239  and  _240
REMARK  108  A    between atoms: _240  and  _241
REMARK  109  A    between atoms: _245  and  _247
REMARK  110  A    between atoms: _247  and  _248
REMARK  111  A    between atoms: _247  and  _250
REMARK  112  A    between atoms: _250  and  _251
REMARK  113  A    between atoms: _254  and  _256
REMARK  114  A    between atoms: _256  and  _257
REMARK  115  A    between atoms: _256  and  _259
REMARK  116  A    between atoms: _259  and  _260
REMARK  117  A    between atoms: _260  and  _261
REMARK  118  A    between atoms: _263  and  _265
REMARK  119  A    between atoms: _265  and  _266
REMARK  120  A    between atoms: _265  and  _268
REMARK  121  A    between atoms: _271  and  _273
REMARK  122  A    between atoms: _273  and  _274
REMARK  123  A    between atoms: _273  and  _276
REMARK  124  A    between atoms: _276  and  _277
REMARK  125  A    between atoms: _277  and  _278
REMARK  126  A    between atoms: _280  and  _282
REMARK  127  A    between atoms: _282  and  _283
REMARK  128  A    between atoms: _282  and  _285
REMARK  129  A    between atoms: _285  and  _286
REMARK  130  A    between atoms: _286  and  _287
REMARK  131  A    between atoms: _290  and  _292
REMARK  132  A    between atoms: _292  and  _293
REMARK  133  A    between atoms: _292  and  _295
REMARK  134  A    between atoms: _295  and  _296
REMARK  135  A    between atoms: _301  and  _302
REMARK  136  A    between atoms: _304  and  _306
REMARK  137  A    between atoms: _306  and  _307
REMARK  138  A    between atoms: _306  and  _309
REMARK  139  A    between atoms: _312  and  _314
REMARK  140  A    between atoms: _314  and  _315
REMARK  141  A    between atoms: _318  and  _320
REMARK  142  A    between atoms: _320  and  _321
REMARK  143  A    between atoms: _323  and  _325
REMARK  144  A    between atoms: _325  and  _326
REMARK  145  A    between atoms: _328  and  _330
REMARK  146  A    between atoms: _330  and  _331
REMARK  147  A    between atoms: _330  and  _333
REMARK  148  A    between atoms: _333  and  _334
REMARK  149  A    between atoms: _334  and  _335
REMARK  150  A    between atoms: _338  and  _340
REMARK  151  A    between atoms: _340  and  _341
REMARK  152  A    between atoms: _340  and  _343
REMARK  153  A    between atoms: _343  and  _344
REMARK  154  A    between atoms: _344  and  _345
REMARK  155  A    between atoms: _347  and  _349
REMARK  156  A    between atoms: _349  and  _350
REMARK  157  A    between atoms: _349  and  _352
REMARK  158  A    between atoms: _352  and  _353
REMARK  159  A    between atoms: _359  and  _361
REMARK  160  A    between atoms: _361  and  _362
REMARK  161  A    between atoms: _361  and  _364
REMARK  162  A    between atoms: _364  and  _365
REMARK  163  A    between atoms: _370  and  _371
REMARK  164  A    between atoms: _373  and  _375
REMARK  165  A    between atoms: _375  and  _376
REMARK  166  A    between atoms: _375  and  _378
REMARK  167  A    between atoms: _378  and  _379
REMARK  168  A    between atoms: _382  and  _384
REMARK  169  A    between atoms: _384  and  _385
REMARK  170  A    between atoms: _384  and  _387
REMARK  171  A    between atoms: _387  and  _388
REMARK  172  A    between atoms: _388  and  _389
REMARK  173  A    between atoms: _389  and  _390
REMARK  174  A    between atoms: _390  and  _391
REMARK  175  A    between atoms: _396  and  _397
REMARK  176  A    between atoms: _402  and  _404
REMARK  177  A    between atoms: _404  and  _405
REMARK  178  A    between atoms: _404  and  _407
REMARK  179  A    between atoms: _407  and  _408
REMARK  180  A    between atoms: _408  and  _409
REMARK  181  A    between atoms: _412  and  _414
REMARK  182  A    between atoms: _414  and  _415
REMARK  183  A    between atoms: _414  and  _417
REMARK  184  A    between atoms: _417  and  _418
REMARK  185  A    between atoms: _423  and  _425
REMARK  186  A    between atoms: _425  and  _426
REMARK  187  A    between atoms: _425  and  _428
REMARK  188  A    between atoms: _428  and  _429
REMARK  189  A    between atoms: _432  and  _434
REMARK  190  A    between atoms: _434  and  _435
REMARK  191  A    between atoms: _434  and  _437
REMARK  192  A    between atoms: _437  and  _438
REMARK  193  A    between atoms: _441  and  _443
REMARK  194  A    between atoms: _443  and  _444
REMARK  195  A    between atoms: _443  and  _446
REMARK  196  A    between atoms: _446  and  _447
REMARK  197  A    between atoms: _450  and  _452
REMARK  198  A    between atoms: _452  and  _453
REMARK  199  A    between atoms: _452  and  _455
REMARK  200  A    between atoms: _455  and  _456
REMARK  201  A    between atoms: _459  and  _461
REMARK  202  A    between atoms: _461  and  _462
REMARK  203  A    between atoms: _461  and  _464
REMARK  204  A    between atoms: _464  and  _465
REMARK  205  A    between atoms: _465  and  _466
REMARK  206  A    between atoms: _471  and  _473
REMARK  207  A    between atoms: _473  and  _474
REMARK  208  A    between atoms: _473  and  _476
REMARK  209  A    between atoms: _479  and  _481
REMARK  210  A    between atoms: _481  and  _482
REMARK  211  A    between atoms: _481  and  _484
REMARK  212  A    between atoms: _484  and  _485
REMARK  213  A    between atoms: _488  and  _490
REMARK  214  A    between atoms: _490  and  _491
REMARK  215  A    between atoms: _490  and  _493
REMARK  216  A    between atoms: _493  and  _494
REMARK  217  A    between atoms: _497  and  _499
REMARK  218  A    between atoms: _499  and  _500
REMARK  219  A    between atoms: _499  and  _502
REMARK  220  A    between atoms: _502  and  _503
REMARK  221  A    between atoms: _509  and  _511
REMARK  222  A    between atoms: _511  and  _512
REMARK  223  A    between atoms: _514  and  _516
REMARK  224  A    between atoms: _516  and  _517
REMARK  225  A    between atoms: _516  and  _519
REMARK  226  A    between atoms: _519  and  _520
REMARK  227  A    between atoms: _523  and  _525
REMARK  228  A    between atoms: _525  and  _526
REMARK  229  A    between atoms: _525  and  _528
REMARK  230  A    between atoms: _528  and  _529
REMARK  231  A    between atoms: _534  and  _536
REMARK  232  A    between atoms: _536  and  _537
REMARK  233  A    between atoms: _536  and  _539
REMARK  234  A    between atoms: _539  and  _540
REMARK  235  A    between atoms: _546  and  _548
REMARK  236  A    between atoms: _548  and  _549
REMARK  237  A    between atoms: _548  and  _551
REMARK  238  A    between atoms: _551  and  _552
REMARK  239  A    between atoms: _555  and  _557
REMARK  240  A    between atoms: _557  and  _558
REMARK  241  A    between atoms: _557  and  _560
REMARK  242  A    between atoms: _560  and  _561
REMARK  243  A    between atoms: _566  and  _567
REMARK  244  A    between atoms: _569  and  _571
REMARK  245  A    between atoms: _571  and  _572
REMARK  246  A    between atoms: _571  and  _574
REMARK  247  A    between atoms: _574  and  _575
REMARK  248  A    between atoms: _575  and  _576
REMARK  249  A    between atoms: _576  and  _577
REMARK  250  A    between atoms: _586  and  _588
REMARK  251  A    between atoms: _588  and  _589
REMARK  252  A    between atoms: _588  and  _591
REMARK  253  A    between atoms: _591  and  _592
REMARK  254  A    between atoms: _592  and  _593
REMARK  255  A    between atoms: _593  and  _594
REMARK  256  A    between atoms: _603  and  _605
REMARK  257  A    between atoms: _605  and  _606
REMARK  258  A    between atoms: _605  and  _608
REMARK  259  A    between atoms: _608  and  _609
REMARK  260  A    between atoms: _614  and  _616
REMARK  261  A    between atoms: _616  and  _617
REMARK                            x       y       z     vdW  Elec       q    Type
REMARK                         _______ _______ _______ _____ _____    ______ ____
ROOT
ATOM      1  O   HOH     1      19.894  11.461   2.184  0.00  0.00    +0.000 OA
ENDROOT
TORSDOF 0
REMARK  Name = ../refined-set-2016/1ydt/1ydt_pocket.pdb
REMARK  261 active torsions:
REMARK  status: ('A' for Active; 'I' for Inactive)
REMARK    1  A    between atoms: _1  and  _3
REMARK    2  A    between atoms: _3  and  _4
REMARK    3  A    between atoms: _3  and  _6
REMARK    4  A    between atoms: _6  and  _7
REMARK    5  A    between atoms: _7  and  _8
REMARK    6  A    between atoms: _8  and  _9
REMARK    7  A    between atoms: _9  and  _10
REMARK    8  A    between atoms: _14  and  _16
REMARK    9  A    between atoms: _16  and  _17
REMARK   10  A    between atoms: _16  and  _19
REMARK   11  A    between atoms: _19  and  _20
REMARK   12  A    between atoms: _23  and  _25
REMARK   13  A    between atoms: _25  and  _26
REMARK   14  A    between atoms: _25  and  _28
REMARK   15  A    between atoms: _28  and  _29
REMARK   16  A    between atoms: _32  and  _34
REMARK   17  A    between atoms: _34  and  _35
REMARK   18  A    between atoms: _37  and  _39
REMARK   19  A    between atoms: _39  and  _40
REMARK   20  A    between atoms: _39  and  _42
REMARK   21  A    between atoms: _42  and  _43
REMARK   22  A    between atoms: _46  and  _48
REMARK   23  A    between atoms: _48  and  _49
REMARK   24  A    between atoms: _51  and  _53
REMARK   25  A    between atoms: _53  and  _54
REMARK   26  A    between atoms: _53  and  _56
REMARK   27  A    between atoms: _56  and  _57
REMARK   28  A    between atoms: _59  and  _61
REMARK   29  A    between atoms: _61  and  _62
REMARK   30  A    between atoms: _61  and  _64
REMARK   31  A    between atoms: _64  and  _65
REMARK   32  A    between atoms: _71  and  _73
REMARK   33  A    between atoms: _73  and  _74
REMARK   34  A    between atoms: _76  and  _78
REMARK   35  A    between atoms: _78  and  _79
REMARK   36  A    between atoms: _78  and  _81
REMARK   37  A    between atoms: _81  and  _82
REMARK   38  A    between atoms: _82  and  _83
REMARK   39  A    between atoms: _83  and  _84
REMARK   40  A    between atoms: _93  and  _95
REMARK   41  A    between atoms: _95  and  _96
REMARK   42  A    between atoms: _95  and  _98
REMARK   43  A    between atoms: _101  and  _103
REMARK   44  A    between atoms: _103  and  _104
REMARK   45  A    between atoms: _103  and  _106
REMARK   46  A    between atoms: _106  and  _107
REMARK   47  A    between atoms: _107  and  _108
REMARK   48  A    between atoms: _110  and  _112
REMARK   49  A    between atoms: _112  and  _113
REMARK   50  A    between atoms: _112  and  _115
REMARK   51  A    between atoms: _115  and  _116
REMARK   52  A    between atoms: _119  and  _121
REMARK   53  A    between atoms: _121  and  _122
REMARK   54  A    between atoms: _121  and  _124
REMARK   55  A    between atoms: _124  and  _125
REMARK   56  A    between atoms: _130  and  _131
REMARK   57  A    between atoms: _133  and  _135
REMARK   58  A    between atoms: _135  and  _136
REMARK   59  A    between atoms: _139  and  _141
REMARK   60  A    between atoms: _141  and  _142
REMARK   61  A    between atoms: _141  and  _144
REMARK   62  A    between atoms: _144  and  _145
REMARK   63  A    between atoms: _145  and  _146
REMARK   64  A    between atoms: _148  and  _150
REMARK   65  A    between atoms: _150  and  _151
REMARK   66  A    between atoms: _150  and  _153
REMARK   67  A    between atoms: _153  and  _154
REMARK   68  A    between atoms: _154  and  _155
REMARK   69  A    between atoms: _155  and  _156
REMARK   70  A    between atoms: _156  and  _157
REMARK   71  A    between atoms: _161  and  _163
REMARK   72  A    between atoms: _163  and  _164
REMARK   73  A    between atoms: _163  and  _166
REMARK   74  A    between atoms: _166  and  _167
REMARK   75  A    between atoms: _170  and  _172
REMARK   76  A    between atoms: _172  and  _173
REMARK   77  A    between atoms: _172  and  _175
REMARK   78  A    between atoms: _175  and  _176
REMARK   79  A    between atoms: _179  and  _181
REMARK   80  A    between atoms: _181  and  _182
REMARK   81  A    between atoms: _181  and  _184
REMARK   82  A    between atoms: _184  and  _185
REMARK   83  A    between atoms: _188  and  _190
REMARK   84  A    between atoms: _190  and  _191
REMARK   85  A    between atoms: _190  and  _193
REMARK   86  A    between atoms: _196  and  _198
REMARK   87  A    between atoms: _198  and  _199
REMARK   88  A    between atoms: _198  and  _201
REMARK   89  A    between atoms: _201  and  _202
REMARK   90  A    between atoms: _205  and  _207
REMARK   91  A    between atoms: _207  and  _208
REMARK   92  A    between atoms: _207  and  _210
REMARK   93  A    between atoms: _210  and  _211
REMARK   94  A    between atoms: _211  and  _212
REMARK   95  A    between atoms: _215  and  _217
REMARK   96  A    between atoms: _217  and  _218
REMARK   97  A    between atoms: _217  and  _220
REMARK   98  A    between atoms: _220  and  _221
REMARK   99  A    between atoms: _224  and  _226
REMARK  100  A    between atoms: _226  and  _227
REMARK  101  A    between atoms: _226  and  _229
REMARK  102  A    between atoms: _232  and  _234
REMARK  103  A    between atoms: _234  and  _235
REMARK  104  A    between atoms: _234  and  _237
REMARK  105  A    between atoms: _237  and  _238
REMARK  106  A    between atoms: _238  and  _239
REMARK  107  A    between atoms: _239  and  _240
REMARK  108  A    between atoms: _240  and  _241
REMARK  109  A    between atoms: _245  and  _247
REMARK  110  A    between atoms: _247  and  _248
REMARK  111  A    between atoms: _247  and  _250
REMARK  112  A    between atoms: _250  and  _251
REMARK  113  A    between atoms: _254  and  _256
REMARK  114  A    between atoms: _256  and  _257
REMARK  115  A    between atoms: _256  and  _259
REMARK  116  A    between atoms: _259  and  _260
REMARK  117  A    between atoms: _260  and  _261
REMARK  118  A    between atoms: _263  and  _265
REMARK  119  A    between atoms: _265  and  _266
REMARK  120  A    between atoms: _265  and  _268
REMARK  121  A    between atoms: _271  and  _273
REMARK  122  A    between atoms: _273  and  _274
REMARK  123  A    between atoms: _273  and  _276
REMARK  124  A    between atoms: _276  and  _277
REMARK  125  A    between atoms: _277  and  _278
REMARK  126  A    between atoms: _280  and  _282
REMARK  127  A    between atoms: _282  and  _283
REMARK  128  A    between atoms: _282  and  _285
REMARK  129  A    between atoms: _285  and  _286
REMARK  130  A    between atoms: _286  and  _287
REMARK  131  A    between atoms: _290  and  _292
REMARK  132  A    between atoms: _292  and  _293
REMARK  133  A    between atoms: _292  and  _295
REMARK  134  A    between atoms: _295  and  _296
REMARK  135  A    between atoms: _301  and  _302
REMARK  136  A    between atoms: _304  and  _306
REMARK  137  A    between atoms: _306  and  _307
REMARK  138  A    between atoms: _306  and  _309
REMARK  139  A    between atoms: _312  and  _314
REMARK  140  A    between atoms: _314  and  _315
REMARK  141  A    between atoms: _318  and  _320
REMARK  142  A    between atoms: _320  and  _321
REMARK  143  A    between atoms: _323  and  _325
REMARK  144  A    between atoms: _325  and  _326
REMARK  145  A    between atoms: _328  and  _330
REMARK  146  A    between atoms: _330  and  _331
REMARK  147  A    between atoms: _330  and  _333
REMARK  148  A    between atoms: _333  and  _334
REMARK  149  A    between atoms: _334  and  _335
REMARK  150  A    between atoms: _338  and  _340
REMARK  151  A    between atoms: _340  and  _341
REMARK  152  A    between atoms: _340  and  _343
REMARK  153  A    between atoms: _343  and  _344
REMARK  154  A    between atoms: _344  and  _345
REMARK  155  A    between atoms: _347  and  _349
REMARK  156  A    between atoms: _349  and  _350
REMARK  157  A    between atoms: _349  and  _352
REMARK  158  A    between atoms: _352  and  _353
REMARK  159  A    between atoms: _359  and  _361
REMARK  160  A    between atoms: _361  and  _362
REMARK  161  A    between atoms: _361  and  _364
REMARK  162  A    between atoms: _364  and  _365
REMARK  163  A    between atoms: _370  and  _371
REMARK  164  A    between atoms: _373  and  _375
REMARK  165  A    between atoms: _375  and  _376
REMARK  166  A    between atoms: _375  and  _378
REMARK  167  A    between atoms: _378  and  _379
REMARK  168  A    between atoms: _382  and  _384
REMARK  169  A    between atoms: _384  and  _385
REMARK  170  A    between atoms: _384  and  _387
REMARK  171  A    between atoms: _387  and  _388
REMARK  172  A    between atoms: _388  and  _389
REMARK  173  A    between atoms: _389  and  _390
REMARK  174  A    between atoms: _390  and  _391
REMARK  175  A    between atoms: _396  and  _397
REMARK  176  A    between atoms: _402  and  _404
REMARK  177  A    between atoms: _404  and  _405
REMARK  178  A    between atoms: _404  and  _407
REMARK  179  A    between atoms: _407  and  _408
REMARK  180  A    between atoms: _408  and  _409
REMARK  181  A    between atoms: _412  and  _414
REMARK  182  A    between atoms: _414  and  _415
REMARK  183  A    between atoms: _414  and  _417
REMARK  184  A    between atoms: _417  and  _418
REMARK  185  A    between atoms: _423  and  _425
REMARK  186  A    between atoms: _425  and  _426
REMARK  187  A    between atoms: _425  and  _428
REMARK  188  A    between atoms: _428  and  _429
REMARK  189  A    between atoms: _432  and  _434
REMARK  190  A    between atoms: _434  and  _435
REMARK  191  A    between atoms: _434  and  _437
REMARK  192  A    between atoms: _437  and  _438
REMARK  193  A    between atoms: _441  and  _443
REMARK  194  A    between atoms: _443  and  _444
REMARK  195  A    between atoms: _443  and  _446
REMARK  196  A    between atoms: _446  and  _447
REMARK  197  A    between atoms: _450  and  _452
REMARK  198  A    between atoms: _452  and  _453
REMARK  199  A    between atoms: _452  and  _455
REMARK  200  A    between atoms: _455  and  _456
REMARK  201  A    between atoms: _459  and  _461
REMARK  202  A    between atoms: _461  and  _462
REMARK  203  A    between atoms: _461  and  _464
REMARK  204  A    between atoms: _464  and  _465
REMARK  205  A    between atoms: _465  and  _466
REMARK  206  A    between atoms: _471  and  _473
REMARK  207  A    between atoms: _473  and  _474
REMARK  208  A    between atoms: _473  and  _476
REMARK  209  A    between atoms: _479  and  _481
REMARK  210  A    between atoms: _481  and  _482
REMARK  211  A    between atoms: _481  and  _484
REMARK  212  A    between atoms: _484  and  _485
REMARK  213  A    between atoms: _488  and  _490
REMARK  214  A    between atoms: _490  and  _491
REMARK  215  A    between atoms: _490  and  _493
REMARK  216  A    between atoms: _493  and  _494
REMARK  217  A    between atoms: _497  and  _499
REMARK  218  A    between atoms: _499  and  _500
REMARK  219  A    between atoms: _499  and  _502
REMARK  220  A    between atoms: _502  and  _503
REMARK  221  A    between atoms: _509  and  _511
REMARK  222  A    between atoms: _511  and  _512
REMARK  223  A    between atoms: _514  and  _516
REMARK  224  A    between atoms: _516  and  _517
REMARK  225  A    between atoms: _516  and  _519
REMARK  226  A    between atoms: _519  and  _520
REMARK  227  A    between atoms: _523  and  _525
REMARK  228  A    between atoms: _525  and  _526
REMARK  229  A    between atoms: _525  and  _528
REMARK  230  A    between atoms: _528  and  _529
REMARK  231  A    between atoms: _534  and  _536
REMARK  232  A    between atoms: _536  and  _537
REMARK  233  A    between atoms: _536  and  _539
REMARK  234  A    between atoms: _539  and  _540
REMARK  235  A    between atoms: _546  and  _548
REMARK  236  A    between atoms: _548  and  _549
REMARK  237  A    between atoms: _548  and  _551
REMARK  238  A    between atoms: _551  and  _552
REMARK  239  A    between atoms: _555  and  _557
REMARK  240  A    between atoms: _557  and  _558
REMARK  241  A    between atoms: _557  and  _560
REMARK  242  A    between atoms: _560  and  _561
REMARK  243  A    between atoms: _566  and  _567
REMARK  244  A    between atoms: _569  and  _571
REMARK  245  A    between atoms: _571  and  _572
REMARK  246  A    between atoms: _571  and  _574
REMARK  247  A    between atoms: _574  and  _575
REMARK  248  A    between atoms: _575  and  _576
REMARK  249  A    between atoms: _576  and  _577
REMARK  250  A    between atoms: _586  and  _588
REMARK  251  A    between atoms: _588  and  _589
REMARK  252  A    between atoms: _588  and  _591
REMARK  253  A    between atoms: _591  and  _592
REMARK  254  A    between atoms: _592  and  _593
REMARK  255  A    between atoms: _593  and  _594
REMARK  256  A    between atoms: _603  and  _605
REMARK  257  A    between atoms: _605  and  _606
REMARK  258  A    between atoms: _605  and  _608
REMARK  259  A    between atoms: _608  and  _609
REMARK  260  A    between atoms: _614  and  _616
REMARK  261  A    between atoms: _616  and  _617
REMARK                            x       y       z     vdW  Elec       q    Type
REMARK                         _______ _______ _______ _____ _____    ______ ____
ROOT
ATOM      1  O   HOH     1       9.912   8.440  10.909  0.00  0.00    +0.000 OA
ENDROOT
TORSDOF 0
REMARK  Name = ../refined-set-2016/1ydt/1ydt_pocket.pdb
REMARK  261 active torsions:
REMARK  status: ('A' for Active; 'I' for Inactive)
REMARK    1  A    between atoms: _1  and  _3
REMARK    2  A    between atoms: _3  and  _4
REMARK    3  A    between atoms: _3  and  _6
REMARK    4  A    between atoms: _6  and  _7
REMARK    5  A    between atoms: _7  and  _8
REMARK    6  A    between atoms: _8  and  _9
REMARK    7  A    between atoms: _9  and  _10
REMARK    8  A    between atoms: _14  and  _16
REMARK    9  A    between atoms: _16  and  _17
REMARK   10  A    between atoms: _16  and  _19
REMARK   11  A    between atoms: _19  and  _20
REMARK   12  A    between atoms: _23  and  _25
REMARK   13  A    between atoms: _25  and  _26
REMARK   14  A    between atoms: _25  and  _28
REMARK   15  A    between atoms: _28  and  _29
REMARK   16  A    between atoms: _32  and  _34
REMARK   17  A    between atoms: _34  and  _35
REMARK   18  A    between atoms: _37  and  _39
REMARK   19  A    between atoms: _39  and  _40
REMARK   20  A    between atoms: _39  and  _42
REMARK   21  A    between atoms: _42  and  _43
REMARK   22  A    between atoms: _46  and  _48
REMARK   23  A    between atoms: _48  and  _49
REMARK   24  A    between atoms: _51  and  _53
REMARK   25  A    between atoms: _53  and  _54
REMARK   26  A    between atoms: _53  and  _56
REMARK   27  A    between atoms: _56  and  _57
REMARK   28  A    between atoms: _59  and  _61
REMARK   29  A    between atoms: _61  and  _62
REMARK   30  A    between atoms: _61  and  _64
REMARK   31  A    between atoms: _64  and  _65
REMARK   32  A    between atoms: _71  and  _73
REMARK   33  A    between atoms: _73  and  _74
REMARK   34  A    between atoms: _76  and  _78
REMARK   35  A    between atoms: _78  and  _79
REMARK   36  A    between atoms: _78  and  _81
REMARK   37  A    between atoms: _81  and  _82
REMARK   38  A    between atoms: _82  and  _83
REMARK   39  A    between atoms: _83  and  _84
REMARK   40  A    between atoms: _93  and  _95
REMARK   41  A    between atoms: _95  and  _96
REMARK   42  A    between atoms: _95  and  _98
REMARK   43  A    between atoms: _101  and  _103
REMARK   44  A    between atoms: _103  and  _104
REMARK   45  A    between atoms: _103  and  _106
REMARK   46  A    between atoms: _106  and  _107
REMARK   47  A    between atoms: _107  and  _108
REMARK   48  A    between atoms: _110  and  _112
REMARK   49  A    between atoms: _112  and  _113
REMARK   50  A    between atoms: _112  and  _115
REMARK   51  A    between atoms: _115  and  _116
REMARK   52  A    between atoms: _119  and  _121
REMARK   53  A    between atoms: _121  and  _122
REMARK   54  A    between atoms: _121  and  _124
REMARK   55  A    between atoms: _124  and  _125
REMARK   56  A    between atoms: _130  and  _131
REMARK   57  A    between atoms: _133  and  _135
REMARK   58  A    between atoms: _135  and  _136
REMARK   59  A    between atoms: _139  and  _141
REMARK   60  A    between atoms: _141  and  _142
REMARK   61  A    between atoms: _141  and  _144
REMARK   62  A    between atoms: _144  and  _145
REMARK   63  A    between atoms: _145  and  _146
REMARK   64  A    between atoms: _148  and  _150
REMARK   65  A    between atoms: _150  and  _151
REMARK   66  A    between atoms: _150  and  _153
REMARK   67  A    between atoms: _153  and  _154
REMARK   68  A    between atoms: _154  and  _155
REMARK   69  A    between atoms: _155  and  _156
REMARK   70  A    between atoms: _156  and  _157
REMARK   71  A    between atoms: _161  and  _163
REMARK   72  A    between atoms: _163  and  _164
REMARK   73  A    between atoms: _163  and  _166
REMARK   74  A    between atoms: _166  and  _167
REMARK   75  A    between atoms: _170  and  _172
REMARK   76  A    between atoms: _172  and  _173
REMARK   77  A    between atoms: _172  and  _175
REMARK   78  A    between atoms: _175  and  _176
REMARK   79  A    between atoms: _179  and  _181
REMARK   80  A    between atoms: _181  and  _182
REMARK   81  A    between atoms: _181  and  _184
REMARK   82  A    between atoms: _184  and  _185
REMARK   83  A    between atoms: _188  and  _190
REMARK   84  A    between atoms: _190  and  _191
REMARK   85  A    between atoms: _190  and  _193
REMARK   86  A    between atoms: _196  and  _198
REMARK   87  A    between atoms: _198  and  _199
REMARK   88  A    between atoms: _198  and  _201
REMARK   89  A    between atoms: _201  and  _202
REMARK   90  A    between atoms: _205  and  _207
REMARK   91  A    between atoms: _207  and  _208
REMARK   92  A    between atoms: _207  and  _210
REMARK   93  A    between atoms: _210  and  _211
REMARK   94  A    between atoms: _211  and  _212
REMARK   95  A    between atoms: _215  and  _217
REMARK   96  A    between atoms: _217  and  _218
REMARK   97  A    between atoms: _217  and  _220
REMARK   98  A    between atoms: _220  and  _221
REMARK   99  A    between atoms: _224  and  _226
REMARK  100  A    between atoms: _226  and  _227
REMARK  101  A    between atoms: _226  and  _229
REMARK  102  A    between atoms: _232  and  _234
REMARK  103  A    between atoms: _234  and  _235
REMARK  104  A    between atoms: _234  and  _237
REMARK  105  A    between atoms: _237  and  _238
REMARK  106  A    between atoms: _238  and  _239
REMARK  107  A    between atoms: _239  and  _240
REMARK  108  A    between atoms: _240  and  _241
REMARK  109  A    between atoms: _245  and  _247
REMARK  110  A    between atoms: _247  and  _248
REMARK  111  A    between atoms: _247  and  _250
REMARK  112  A    between atoms: _250  and  _251
REMARK  113  A    between atoms: _254  and  _256
REMARK  114  A    between atoms: _256  and  _257
REMARK  115  A    between atoms: _256  and  _259
REMARK  116  A    between atoms: _259  and  _260
REMARK  117  A    between atoms: _260  and  _261
REMARK  118  A    between atoms: _263  and  _265
REMARK  119  A    between atoms: _265  and  _266
REMARK  120  A    between atoms: _265  and  _268
REMARK  121  A    between atoms: _271  and  _273
REMARK  122  A    between atoms: _273  and  _274
REMARK  123  A    between atoms: _273  and  _276
REMARK  124  A    between atoms: _276  and  _277
REMARK  125  A    between atoms: _277  and  _278
REMARK  126  A    between atoms: _280  and  _282
REMARK  127  A    between atoms: _282  and  _283
REMARK  128  A    between atoms: _282  and  _285
REMARK  129  A    between atoms: _285  and  _286
REMARK  130  A    between atoms: _286  and  _287
REMARK  131  A    between atoms: _290  and  _292
REMARK  132  A    between atoms: _292  and  _293
REMARK  133  A    between atoms: _292  and  _295
REMARK  134  A    between atoms: _295  and  _296
REMARK  135  A    between atoms: _301  and  _302
REMARK  136  A    between atoms: _304  and  _306
REMARK  137  A    between atoms: _306  and  _307
REMARK  138  A    between atoms: _306  and  _309
REMARK  139  A    between atoms: _312  and  _314
REMARK  140  A    between atoms: _314  and  _315
REMARK  141  A    between atoms: _318  and  _320
REMARK  142  A    between atoms: _320  and  _321
REMARK  143  A    between atoms: _323  and  _325
REMARK  144  A    between atoms: _325  and  _326
REMARK  145  A    between atoms: _328  and  _330
REMARK  146  A    between atoms: _330  and  _331
REMARK  147  A    between atoms: _330  and  _333
REMARK  148  A    between atoms: _333  and  _334
REMARK  149  A    between atoms: _334  and  _335
REMARK  150  A    between atoms: _338  and  _340
REMARK  151  A    between atoms: _340  and  _341
REMARK  152  A    between atoms: _340  and  _343
REMARK  153  A    between atoms: _343  and  _344
REMARK  154  A    between atoms: _344  and  _345
REMARK  155  A    between atoms: _347  and  _349
REMARK  156  A    between atoms: _349  and  _350
REMARK  157  A    between atoms: _349  and  _352
REMARK  158  A    between atoms: _352  and  _353
REMARK  159  A    between atoms: _359  and  _361
REMARK  160  A    between atoms: _361  and  _362
REMARK  161  A    between atoms: _361  and  _364
REMARK  162  A    between atoms: _364  and  _365
REMARK  163  A    between atoms: _370  and  _371
REMARK  164  A    between atoms: _373  and  _375
REMARK  165  A    between atoms: _375  and  _376
REMARK  166  A    between atoms: _375  and  _378
REMARK  167  A    between atoms: _378  and  _379
REMARK  168  A    between atoms: _382  and  _384
REMARK  169  A    between atoms: _384  and  _385
REMARK  170  A    between atoms: _384  and  _387
REMARK  171  A    between atoms: _387  and  _388
REMARK  172  A    between atoms: _388  and  _389
REMARK  173  A    between atoms: _389  and  _390
REMARK  174  A    between atoms: _390  and  _391
REMARK  175  A    between atoms: _396  and  _397
REMARK  176  A    between atoms: _402  and  _404
REMARK  177  A    between atoms: _404  and  _405
REMARK  178  A    between atoms: _404  and  _407
REMARK  179  A    between atoms: _407  and  _408
REMARK  180  A    between atoms: _408  and  _409
REMARK  181  A    between atoms: _412  and  _414
REMARK  182  A    between atoms: _414  and  _415
REMARK  183  A    between atoms: _414  and  _417
REMARK  184  A    between atoms: _417  and  _418
REMARK  185  A    between atoms: _423  and  _425
REMARK  186  A    between atoms: _425  and  _426
REMARK  187  A    between atoms: _425  and  _428
REMARK  188  A    between atoms: _428  and  _429
REMARK  189  A    between atoms: _432  and  _434
REMARK  190  A    between atoms: _434  and  _435
REMARK  191  A    between atoms: _434  and  _437
REMARK  192  A    between atoms: _437  and  _438
REMARK  193  A    between atoms: _441  and  _443
REMARK  194  A    between atoms: _443  and  _444
REMARK  195  A    between atoms: _443  and  _446
REMARK  196  A    between atoms: _446  and  _447
REMARK  197  A    between atoms: _450  and  _452
REMARK  198  A    between atoms: _452  and  _453
REMARK  199  A    between atoms: _452  and  _455
REMARK  200  A    between atoms: _455  and  _456
REMARK  201  A    between atoms: _459  and  _461
REMARK  202  A    between atoms: _461  and  _462
REMARK  203  A    between atoms: _461  and  _464
REMARK  204  A    between atoms: _464  and  _465
REMARK  205  A    between atoms: _465  and  _466
REMARK  206  A    between atoms: _471  and  _473
REMARK  207  A    between atoms: _473  and  _474
REMARK  208  A    between atoms: _473  and  _476
REMARK  209  A    between atoms: _479  and  _481
REMARK  210  A    between atoms: _481  and  _482
REMARK  211  A    between atoms: _481  and  _484
REMARK  212  A    between atoms: _484  and  _485
REMARK  213  A    between atoms: _488  and  _490
REMARK  214  A    between atoms: _490  and  _491
REMARK  215  A    between atoms: _490  and  _493
REMARK  216  A    between atoms: _493  and  _494
REMARK  217  A    between atoms: _497  and  _499
REMARK  218  A    between atoms: _499  and  _500
REMARK  219  A    between atoms: _499  and  _502
REMARK  220  A    between atoms: _502  and  _503
REMARK  221  A    between atoms: _509  and  _511
REMARK  222  A    between atoms: _511  and  _512
REMARK  223  A    between atoms: _514  and  _516
REMARK  224  A    between atoms: _516  and  _517
REMARK  225  A    between atoms: _516  and  _519
REMARK  226  A    between atoms: _519  and  _520
REMARK  227  A    between atoms: _523  and  _525
REMARK  228  A    between atoms: _525  and  _526
REMARK  229  A    between atoms: _525  and  _528
REMARK  230  A    between atoms: _528  and  _529
REMARK  231  A    between atoms: _534  and  _536
REMARK  232  A    between atoms: _536  and  _537
REMARK  233  A    between atoms: _536  and  _539
REMARK  234  A    between atoms: _539  and  _540
REMARK  235  A    between atoms: _546  and  _548
REMARK  236  A    between atoms: _548  and  _549
REMARK  237  A    between atoms: _548  and  _551
REMARK  238  A    between atoms: _551  and  _552
REMARK  239  A    between atoms: _555  and  _557
REMARK  240  A    between atoms: _557  and  _558
REMARK  241  A    between atoms: _557  and  _560
REMARK  242  A    between atoms: _560  and  _561
REMARK  243  A    between atoms: _566  and  _567
REMARK  244  A    between atoms: _569  and  _571
REMARK  245  A    between atoms: _571  and  _572
REMARK  246  A    between atoms: _571  and  _574
REMARK  247  A    between atoms: _574  and  _575
REMARK  248  A    between atoms: _575  and  _576
REMARK  249  A    between atoms: _576  and  _577
REMARK  250  A    between atoms: _586  and  _588
REMARK  251  A    between atoms: _588  and  _589
REMARK  252  A    between atoms: _588  and  _591
REMARK  253  A    between atoms: _591  and  _592
REMARK  254  A    between atoms: _592  and  _593
REMARK  255  A    between atoms: _593  and  _594
REMARK  256  A    between atoms: _603  and  _605
REMARK  257  A    between atoms: _605  and  _606
REMARK  258  A    between atoms: _605  and  _608
REMARK  259  A    between atoms: _608  and  _609
REMARK  260  A    between atoms: _614  and  _616
REMARK  261  A    between atoms: _616  and  _617
REMARK                            x       y       z     vdW  Elec       q    Type
REMARK                         _______ _______ _______ _____ _____    ______ ____
ROOT
ATOM      1  O   HOH     1      21.972   9.687  -0.818  0.00  0.00    +0.000 OA
ENDROOT
TORSDOF 0
