REMARK  Name = ../refined-set-2016/3sm2/3sm2_pocket.pdb
REMARK  227 active torsions:
REMARK  status: ('A' for Active; 'I' for Inactive)
REMARK    1  A    between atoms: _2  and  _3
REMARK    2  A    between atoms: _8  and  _10
REMARK    3  A    between atoms: _10  and  _11
REMARK    4  A    between atoms: _10  and  _13
REMARK    5  A    between atoms: _13  and  _14
REMARK    6  A    between atoms: _17  and  _19
REMARK    7  A    between atoms: _19  and  _20
REMARK    8  A    between atoms: _19  and  _22
REMARK    9  A    between atoms: _25  and  _27
REMARK   10  A    between atoms: _27  and  _28
REMARK   11  A    between atoms: _27  and  _30
REMARK   12  A    between atoms: _30  and  _31
REMARK   13  A    between atoms: _34  and  _36
REMARK   14  A    between atoms: _36  and  _37
REMARK   15  A    between atoms: _36  and  _39
REMARK   16  A    between atoms: _39  and  _40
REMARK   17  A    between atoms: _43  and  _45
REMARK   18  A    between atoms: _45  and  _46
REMARK   19  A    between atoms: _48  and  _50
REMARK   20  A    between atoms: _50  and  _51
REMARK   21  A    between atoms: _54  and  _56
REMARK   22  A    between atoms: _56  and  _57
REMARK   23  A    between atoms: _56  and  _59
REMARK   24  A    between atoms: _59  and  _60
REMARK   25  A    between atoms: _60  and  _61
REMARK   26  A    between atoms: _66  and  _68
REMARK   27  A    between atoms: _68  and  _69
REMARK   28  A    between atoms: _68  and  _71
REMARK   29  A    between atoms: _71  and  _72
REMARK   30  A    between atoms: _77  and  _79
REMARK   31  A    between atoms: _79  and  _80
REMARK   32  A    between atoms: _79  and  _82
REMARK   33  A    between atoms: _82  and  _83
REMARK   34  A    between atoms: _85  and  _87
REMARK   35  A    between atoms: _87  and  _88
REMARK   36  A    between atoms: _87  and  _90
REMARK   37  A    between atoms: _93  and  _95
REMARK   38  A    between atoms: _95  and  _96
REMARK   39  A    between atoms: _95  and  _98
REMARK   40  A    between atoms: _98  and  _99
REMARK   41  A    between atoms: _102  and  _104
REMARK   42  A    between atoms: _104  and  _105
REMARK   43  A    between atoms: _104  and  _107
REMARK   44  A    between atoms: _107  and  _108
REMARK   45  A    between atoms: _118  and  _120
REMARK   46  A    between atoms: _120  and  _121
REMARK   47  A    between atoms: _120  and  _123
REMARK   48  A    between atoms: _126  and  _128
REMARK   49  A    between atoms: _128  and  _129
REMARK   50  A    between atoms: _128  and  _131
REMARK   51  A    between atoms: _131  and  _132
REMARK   52  A    between atoms: _132  and  _133
REMARK   53  A    between atoms: _138  and  _140
REMARK   54  A    between atoms: _140  and  _141
REMARK   55  A    between atoms: _143  and  _145
REMARK   56  A    between atoms: _145  and  _146
REMARK   57  A    between atoms: _149  and  _151
REMARK   58  A    between atoms: _151  and  _152
REMARK   59  A    between atoms: _151  and  _154
REMARK   60  A    between atoms: _154  and  _155
REMARK   61  A    between atoms: _158  and  _160
REMARK   62  A    between atoms: _160  and  _161
REMARK   63  A    between atoms: _163  and  _165
REMARK   64  A    between atoms: _165  and  _166
REMARK   65  A    between atoms: _165  and  _168
REMARK   66  A    between atoms: _168  and  _169
REMARK   67  A    between atoms: _174  and  _175
REMARK   68  A    between atoms: _177  and  _179
REMARK   69  A    between atoms: _179  and  _180
REMARK   70  A    between atoms: _179  and  _182
REMARK   71  A    between atoms: _182  and  _183
REMARK   72  A    between atoms: _193  and  _195
REMARK   73  A    between atoms: _195  and  _196
REMARK   74  A    between atoms: _195  and  _198
REMARK   75  A    between atoms: _198  and  _199
REMARK   76  A    between atoms: _202  and  _204
REMARK   77  A    between atoms: _204  and  _205
REMARK   78  A    between atoms: _204  and  _207
REMARK   79  A    between atoms: _210  and  _212
REMARK   80  A    between atoms: _212  and  _213
REMARK   81  A    between atoms: _212  and  _215
REMARK   82  A    between atoms: _215  and  _216
REMARK   83  A    between atoms: _219  and  _221
REMARK   84  A    between atoms: _221  and  _222
REMARK   85  A    between atoms: _221  and  _224
REMARK   86  A    between atoms: _227  and  _228
REMARK   87  A    between atoms: _233  and  _235
REMARK   88  A    between atoms: _235  and  _236
REMARK   89  A    between atoms: _235  and  _238
REMARK   90  A    between atoms: _238  and  _239
REMARK   91  A    between atoms: _244  and  _245
REMARK   92  A    between atoms: _248  and  _249
REMARK   93  A    between atoms: _254  and  _256
REMARK   94  A    between atoms: _256  and  _257
REMARK   95  A    between atoms: _256  and  _259
REMARK   96  A    between atoms: _259  and  _260
REMARK   97  A    between atoms: _263  and  _265
REMARK   98  A    between atoms: _265  and  _266
REMARK   99  A    between atoms: _268  and  _270
REMARK  100  A    between atoms: _270  and  _271
REMARK  101  A    between atoms: _270  and  _273
REMARK  102  A    between atoms: _273  and  _274
REMARK  103  A    between atoms: _274  and  _275
REMARK  104  A    between atoms: _275  and  _276
REMARK  105  A    between atoms: _285  and  _287
REMARK  106  A    between atoms: _287  and  _288
REMARK  107  A    between atoms: _287  and  _290
REMARK  108  A    between atoms: _290  and  _291
REMARK  109  A    between atoms: _295  and  _296
REMARK  110  A    between atoms: _301  and  _303
REMARK  111  A    between atoms: _303  and  _304
REMARK  112  A    between atoms: _303  and  _306
REMARK  113  A    between atoms: _306  and  _307
REMARK  114  A    between atoms: _310  and  _312
REMARK  115  A    between atoms: _312  and  _313
REMARK  116  A    between atoms: _312  and  _315
REMARK  117  A    between atoms: _318  and  _320
REMARK  118  A    between atoms: _320  and  _321
REMARK  119  A    between atoms: _320  and  _323
REMARK  120  A    between atoms: _323  and  _324
REMARK  121  A    between atoms: _327  and  _329
REMARK  122  A    between atoms: _329  and  _330
REMARK  123  A    between atoms: _329  and  _332
REMARK  124  A    between atoms: _332  and  _333
REMARK  125  A    between atoms: _336  and  _338
REMARK  126  A    between atoms: _338  and  _339
REMARK  127  A    between atoms: _341  and  _343
REMARK  128  A    between atoms: _343  and  _344
REMARK  129  A    between atoms: _347  and  _349
REMARK  130  A    between atoms: _349  and  _350
REMARK  131  A    between atoms: _349  and  _352
REMARK  132  A    between atoms: _352  and  _353
REMARK  133  A    between atoms: _353  and  _354
REMARK  134  A    between atoms: _359  and  _361
REMARK  135  A    between atoms: _361  and  _362
REMARK  136  A    between atoms: _361  and  _364
REMARK  137  A    between atoms: _364  and  _365
REMARK  138  A    between atoms: _370  and  _372
REMARK  139  A    between atoms: _372  and  _373
REMARK  140  A    between atoms: _372  and  _375
REMARK  141  A    between atoms: _375  and  _376
REMARK  142  A    between atoms: _378  and  _380
REMARK  143  A    between atoms: _380  and  _381
REMARK  144  A    between atoms: _380  and  _383
REMARK  145  A    between atoms: _386  and  _388
REMARK  146  A    between atoms: _388  and  _389
REMARK  147  A    between atoms: _392  and  _394
REMARK  148  A    between atoms: _394  and  _395
REMARK  149  A    between atoms: _394  and  _397
REMARK  150  A    between atoms: _397  and  _398
REMARK  151  A    between atoms: _408  and  _410
REMARK  152  A    between atoms: _410  and  _411
REMARK  153  A    between atoms: _410  and  _413
REMARK  154  A    between atoms: _416  and  _418
REMARK  155  A    between atoms: _418  and  _419
REMARK  156  A    between atoms: _418  and  _421
REMARK  157  A    between atoms: _421  and  _422
REMARK  158  A    between atoms: _422  and  _423
REMARK  159  A    between atoms: _428  and  _430
REMARK  160  A    between atoms: _430  and  _431
REMARK  161  A    between atoms: _433  and  _435
REMARK  162  A    between atoms: _435  and  _436
REMARK  163  A    between atoms: _439  and  _441
REMARK  164  A    between atoms: _441  and  _442
REMARK  165  A    between atoms: _441  and  _444
REMARK  166  A    between atoms: _444  and  _445
REMARK  167  A    between atoms: _448  and  _450
REMARK  168  A    between atoms: _450  and  _451
REMARK  169  A    between atoms: _453  and  _455
REMARK  170  A    between atoms: _455  and  _456
REMARK  171  A    between atoms: _458  and  _460
REMARK  172  A    between atoms: _460  and  _461
REMARK  173  A    between atoms: _460  and  _463
REMARK  174  A    between atoms: _463  and  _464
REMARK  175  A    between atoms: _464  and  _465
REMARK  176  A    between atoms: _465  and  _466
REMARK  177  A    between atoms: _466  and  _467
REMARK  178  A    between atoms: _471  and  _473
REMARK  179  A    between atoms: _473  and  _474
REMARK  180  A    between atoms: _473  and  _476
REMARK  181  A    between atoms: _476  and  _477
REMARK  182  A    between atoms: _482  and  _483
REMARK  183  A    between atoms: _485  and  _487
REMARK  184  A    between atoms: _487  and  _488
REMARK  185  A    between atoms: _487  and  _490
REMARK  186  A    between atoms: _490  and  _491
REMARK  187  A    between atoms: _501  and  _503
REMARK  188  A    between atoms: _503  and  _504
REMARK  189  A    between atoms: _503  and  _506
REMARK  190  A    between atoms: _506  and  _507
REMARK  191  A    between atoms: _510  and  _512
REMARK  192  A    between atoms: _512  and  _513
REMARK  193  A    between atoms: _512  and  _515
REMARK  194  A    between atoms: _518  and  _520
REMARK  195  A    between atoms: _520  and  _521
REMARK  196  A    between atoms: _520  and  _523
REMARK  197  A    between atoms: _523  and  _524
REMARK  198  A    between atoms: _527  and  _529
REMARK  199  A    between atoms: _529  and  _530
REMARK  200  A    between atoms: _529  and  _532
REMARK  201  A    between atoms: _535  and  _536
REMARK  202  A    between atoms: _541  and  _543
REMARK  203  A    between atoms: _543  and  _544
REMARK  204  A    between atoms: _543  and  _546
REMARK  205  A    between atoms: _546  and  _547
REMARK  206  A    between atoms: _552  and  _553
REMARK  207  A    between atoms: _556  and  _557
REMARK  208  A    between atoms: _562  and  _564
REMARK  209  A    between atoms: _564  and  _565
REMARK  210  A    between atoms: _564  and  _567
REMARK  211  A    between atoms: _567  and  _568
REMARK  212  A    between atoms: _571  and  _573
REMARK  213  A    between atoms: _573  and  _574
REMARK  214  A    between atoms: _573  and  _576
REMARK  215  A    between atoms: _576  and  _577
REMARK  216  A    between atoms: _580  and  _582
REMARK  217  A    between atoms: _582  and  _583
REMARK  218  A    between atoms: _585  and  _587
REMARK  219  A    between atoms: _587  and  _588
REMARK  220  A    between atoms: _587  and  _590
REMARK  221  A    between atoms: _590  and  _591
REMARK  222  A    between atoms: _591  and  _592
REMARK  223  A    between atoms: _592  and  _593
REMARK  224  A    between atoms: _602  and  _604
REMARK  225  A    between atoms: _604  and  _605
REMARK  226  A    between atoms: _604  and  _607
REMARK  227  A    between atoms: _607  and  _608
REMARK                            x       y       z     vdW  Elec       q    Type
REMARK                         _______ _______ _______ _____ _____    ______ ____
ROOT
ATOM      1  N   PRO A   1     -12.068  -3.681   2.485  0.00  0.00    -0.212 NA
ATOM      2  CD  PRO A   1     -11.531  -2.400   2.998  0.00  0.00    +0.089 C 
ATOM      3  CG  PRO A   1     -10.405  -2.094   2.040  0.00  0.00    +0.021 C 
ATOM      4  CB  PRO A   1     -10.816  -2.736   0.746  0.00  0.00    +0.027 C 
ATOM      5  CA  PRO A   1     -11.494  -4.036   1.186  0.00  0.00    +0.137 C 
ENDROOT
BRANCH   5   6
ATOM      6  C   PRO A   1     -10.478  -5.152   1.365  0.00  0.00    +0.224 C 
ATOM      7  O   PRO A   1     -10.134  -5.495   2.498  0.00  0.00    -0.287 OA
ENDBRANCH   5   6
TORSDOF 1
REMARK  Name = ../refined-set-2016/3sm2/3sm2_pocket.pdb
REMARK  227 active torsions:
REMARK  status: ('A' for Active; 'I' for Inactive)
REMARK    1  A    between atoms: _2  and  _3
REMARK    2  A    between atoms: _8  and  _10
REMARK    3  A    between atoms: _10  and  _11
REMARK    4  A    between atoms: _10  and  _13
REMARK    5  A    between atoms: _13  and  _14
REMARK    6  A    between atoms: _17  and  _19
REMARK    7  A    between atoms: _19  and  _20
REMARK    8  A    between atoms: _19  and  _22
REMARK    9  A    between atoms: _25  and  _27
REMARK   10  A    between atoms: _27  and  _28
REMARK   11  A    between atoms: _27  and  _30
REMARK   12  A    between atoms: _30  and  _31
REMARK   13  A    between atoms: _34  and  _36
REMARK   14  A    between atoms: _36  and  _37
REMARK   15  A    between atoms: _36  and  _39
REMARK   16  A    between atoms: _39  and  _40
REMARK   17  A    between atoms: _43  and  _45
REMARK   18  A    between atoms: _45  and  _46
REMARK   19  A    between atoms: _48  and  _50
REMARK   20  A    between atoms: _50  and  _51
REMARK   21  A    between atoms: _54  and  _56
REMARK   22  A    between atoms: _56  and  _57
REMARK   23  A    between atoms: _56  and  _59
REMARK   24  A    between atoms: _59  and  _60
REMARK   25  A    between atoms: _60  and  _61
REMARK   26  A    between atoms: _66  and  _68
REMARK   27  A    between atoms: _68  and  _69
REMARK   28  A    between atoms: _68  and  _71
REMARK   29  A    between atoms: _71  and  _72
REMARK   30  A    between atoms: _77  and  _79
REMARK   31  A    between atoms: _79  and  _80
REMARK   32  A    between atoms: _79  and  _82
REMARK   33  A    between atoms: _82  and  _83
REMARK   34  A    between atoms: _85  and  _87
REMARK   35  A    between atoms: _87  and  _88
REMARK   36  A    between atoms: _87  and  _90
REMARK   37  A    between atoms: _93  and  _95
REMARK   38  A    between atoms: _95  and  _96
REMARK   39  A    between atoms: _95  and  _98
REMARK   40  A    between atoms: _98  and  _99
REMARK   41  A    between atoms: _102  and  _104
REMARK   42  A    between atoms: _104  and  _105
REMARK   43  A    between atoms: _104  and  _107
REMARK   44  A    between atoms: _107  and  _108
REMARK   45  A    between atoms: _118  and  _120
REMARK   46  A    between atoms: _120  and  _121
REMARK   47  A    between atoms: _120  and  _123
REMARK   48  A    between atoms: _126  and  _128
REMARK   49  A    between atoms: _128  and  _129
REMARK   50  A    between atoms: _128  and  _131
REMARK   51  A    between atoms: _131  and  _132
REMARK   52  A    between atoms: _132  and  _133
REMARK   53  A    between atoms: _138  and  _140
REMARK   54  A    between atoms: _140  and  _141
REMARK   55  A    between atoms: _143  and  _145
REMARK   56  A    between atoms: _145  and  _146
REMARK   57  A    between atoms: _149  and  _151
REMARK   58  A    between atoms: _151  and  _152
REMARK   59  A    between atoms: _151  and  _154
REMARK   60  A    between atoms: _154  and  _155
REMARK   61  A    between atoms: _158  and  _160
REMARK   62  A    between atoms: _160  and  _161
REMARK   63  A    between atoms: _163  and  _165
REMARK   64  A    between atoms: _165  and  _166
REMARK   65  A    between atoms: _165  and  _168
REMARK   66  A    between atoms: _168  and  _169
REMARK   67  A    between atoms: _174  and  _175
REMARK   68  A    between atoms: _177  and  _179
REMARK   69  A    between atoms: _179  and  _180
REMARK   70  A    between atoms: _179  and  _182
REMARK   71  A    between atoms: _182  and  _183
REMARK   72  A    between atoms: _193  and  _195
REMARK   73  A    between atoms: _195  and  _196
REMARK   74  A    between atoms: _195  and  _198
REMARK   75  A    between atoms: _198  and  _199
REMARK   76  A    between atoms: _202  and  _204
REMARK   77  A    between atoms: _204  and  _205
REMARK   78  A    between atoms: _204  and  _207
REMARK   79  A    between atoms: _210  and  _212
REMARK   80  A    between atoms: _212  and  _213
REMARK   81  A    between atoms: _212  and  _215
REMARK   82  A    between atoms: _215  and  _216
REMARK   83  A    between atoms: _219  and  _221
REMARK   84  A    between atoms: _221  and  _222
REMARK   85  A    between atoms: _221  and  _224
REMARK   86  A    between atoms: _227  and  _228
REMARK   87  A    between atoms: _233  and  _235
REMARK   88  A    between atoms: _235  and  _236
REMARK   89  A    between atoms: _235  and  _238
REMARK   90  A    between atoms: _238  and  _239
REMARK   91  A    between atoms: _244  and  _245
REMARK   92  A    between atoms: _248  and  _249
REMARK   93  A    between atoms: _254  and  _256
REMARK   94  A    between atoms: _256  and  _257
REMARK   95  A    between atoms: _256  and  _259
REMARK   96  A    between atoms: _259  and  _260
REMARK   97  A    between atoms: _263  and  _265
REMARK   98  A    between atoms: _265  and  _266
REMARK   99  A    between atoms: _268  and  _270
REMARK  100  A    between atoms: _270  and  _271
REMARK  101  A    between atoms: _270  and  _273
REMARK  102  A    between atoms: _273  and  _274
REMARK  103  A    between atoms: _274  and  _275
REMARK  104  A    between atoms: _275  and  _276
REMARK  105  A    between atoms: _285  and  _287
REMARK  106  A    between atoms: _287  and  _288
REMARK  107  A    between atoms: _287  and  _290
REMARK  108  A    between atoms: _290  and  _291
REMARK  109  A    between atoms: _295  and  _296
REMARK  110  A    between atoms: _301  and  _303
REMARK  111  A    between atoms: _303  and  _304
REMARK  112  A    between atoms: _303  and  _306
REMARK  113  A    between atoms: _306  and  _307
REMARK  114  A    between atoms: _310  and  _312
REMARK  115  A    between atoms: _312  and  _313
REMARK  116  A    between atoms: _312  and  _315
REMARK  117  A    between atoms: _318  and  _320
REMARK  118  A    between atoms: _320  and  _321
REMARK  119  A    between atoms: _320  and  _323
REMARK  120  A    between atoms: _323  and  _324
REMARK  121  A    between atoms: _327  and  _329
REMARK  122  A    between atoms: _329  and  _330
REMARK  123  A    between atoms: _329  and  _332
REMARK  124  A    between atoms: _332  and  _333
REMARK  125  A    between atoms: _336  and  _338
REMARK  126  A    between atoms: _338  and  _339
REMARK  127  A    between atoms: _341  and  _343
REMARK  128  A    between atoms: _343  and  _344
REMARK  129  A    between atoms: _347  and  _349
REMARK  130  A    between atoms: _349  and  _350
REMARK  131  A    between atoms: _349  and  _352
REMARK  132  A    between atoms: _352  and  _353
REMARK  133  A    between atoms: _353  and  _354
REMARK  134  A    between atoms: _359  and  _361
REMARK  135  A    between atoms: _361  and  _362
REMARK  136  A    between atoms: _361  and  _364
REMARK  137  A    between atoms: _364  and  _365
REMARK  138  A    between atoms: _370  and  _372
REMARK  139  A    between atoms: _372  and  _373
REMARK  140  A    between atoms: _372  and  _375
REMARK  141  A    between atoms: _375  and  _376
REMARK  142  A    between atoms: _378  and  _380
REMARK  143  A    between atoms: _380  and  _381
REMARK  144  A    between atoms: _380  and  _383
REMARK  145  A    between atoms: _386  and  _388
REMARK  146  A    between atoms: _388  and  _389
REMARK  147  A    between atoms: _392  and  _394
REMARK  148  A    between atoms: _394  and  _395
REMARK  149  A    between atoms: _394  and  _397
REMARK  150  A    between atoms: _397  and  _398
REMARK  151  A    between atoms: _408  and  _410
REMARK  152  A    between atoms: _410  and  _411
REMARK  153  A    between atoms: _410  and  _413
REMARK  154  A    between atoms: _416  and  _418
REMARK  155  A    between atoms: _418  and  _419
REMARK  156  A    between atoms: _418  and  _421
REMARK  157  A    between atoms: _421  and  _422
REMARK  158  A    between atoms: _422  and  _423
REMARK  159  A    between atoms: _428  and  _430
REMARK  160  A    between atoms: _430  and  _431
REMARK  161  A    between atoms: _433  and  _435
REMARK  162  A    between atoms: _435  and  _436
REMARK  163  A    between atoms: _439  and  _441
REMARK  164  A    between atoms: _441  and  _442
REMARK  165  A    between atoms: _441  and  _444
REMARK  166  A    between atoms: _444  and  _445
REMARK  167  A    between atoms: _448  and  _450
REMARK  168  A    between atoms: _450  and  _451
REMARK  169  A    between atoms: _453  and  _455
REMARK  170  A    between atoms: _455  and  _456
REMARK  171  A    between atoms: _458  and  _460
REMARK  172  A    between atoms: _460  and  _461
REMARK  173  A    between atoms: _460  and  _463
REMARK  174  A    between atoms: _463  and  _464
REMARK  175  A    between atoms: _464  and  _465
REMARK  176  A    between atoms: _465  and  _466
REMARK  177  A    between atoms: _466  and  _467
REMARK  178  A    between atoms: _471  and  _473
REMARK  179  A    between atoms: _473  and  _474
REMARK  180  A    between atoms: _473  and  _476
REMARK  181  A    between atoms: _476  and  _477
REMARK  182  A    between atoms: _482  and  _483
REMARK  183  A    between atoms: _485  and  _487
REMARK  184  A    between atoms: _487  and  _488
REMARK  185  A    between atoms: _487  and  _490
REMARK  186  A    between atoms: _490  and  _491
REMARK  187  A    between atoms: _501  and  _503
REMARK  188  A    between atoms: _503  and  _504
REMARK  189  A    between atoms: _503  and  _506
REMARK  190  A    between atoms: _506  and  _507
REMARK  191  A    between atoms: _510  and  _512
REMARK  192  A    between atoms: _512  and  _513
REMARK  193  A    between atoms: _512  and  _515
REMARK  194  A    between atoms: _518  and  _520
REMARK  195  A    between atoms: _520  and  _521
REMARK  196  A    between atoms: _520  and  _523
REMARK  197  A    between atoms: _523  and  _524
REMARK  198  A    between atoms: _527  and  _529
REMARK  199  A    between atoms: _529  and  _530
REMARK  200  A    between atoms: _529  and  _532
REMARK  201  A    between atoms: _535  and  _536
REMARK  202  A    between atoms: _541  and  _543
REMARK  203  A    between atoms: _543  and  _544
REMARK  204  A    between atoms: _543  and  _546
REMARK  205  A    between atoms: _546  and  _547
REMARK  206  A    between atoms: _552  and  _553
REMARK  207  A    between atoms: _556  and  _557
REMARK  208  A    between atoms: _562  and  _564
REMARK  209  A    between atoms: _564  and  _565
REMARK  210  A    between atoms: _564  and  _567
REMARK  211  A    between atoms: _567  and  _568
REMARK  212  A    between atoms: _571  and  _573
REMARK  213  A    between atoms: _573  and  _574
REMARK  214  A    between atoms: _573  and  _576
REMARK  215  A    between atoms: _576  and  _577
REMARK  216  A    between atoms: _580  and  _582
REMARK  217  A    between atoms: _582  and  _583
REMARK  218  A    between atoms: _585  and  _587
REMARK  219  A    between atoms: _587  and  _588
REMARK  220  A    between atoms: _587  and  _590
REMARK  221  A    between atoms: _590  and  _591
REMARK  222  A    between atoms: _591  and  _592
REMARK  223  A    between atoms: _592  and  _593
REMARK  224  A    between atoms: _602  and  _604
REMARK  225  A    between atoms: _604  and  _605
REMARK  226  A    between atoms: _604  and  _607
REMARK  227  A    between atoms: _607  and  _608
REMARK                            x       y       z     vdW  Elec       q    Type
REMARK                         _______ _______ _______ _____ _____    ______ ____
ROOT
ATOM      1  C   ALA A   6      -0.658  -2.314  13.560  0.00  0.00    +0.241 C 
ATOM      2  N   GLN A   7      -0.158  -1.666  14.598  0.00  0.00    -0.297 N 
ATOM      3  H   GLN A   7      -0.339  -0.648  14.711  0.00  0.00    +0.150 HD
ATOM      4  O   ALA A   6      -0.460  -3.520  13.364  0.00  0.00    -0.273 OA
ENDROOT
BRANCH   1   5
ATOM      5  CA  ALA A   6      -1.486  -1.470  12.589  0.00  0.00    +0.149 C 
ATOM      6  CB  ALA A   6      -2.942  -1.935  12.547  0.00  0.00    +0.031 C 
BRANCH   5   9
ATOM      7  C   GLY A   5      -0.127  -0.519  10.786  0.00  0.00    +0.243 C 
ATOM      8  O   GLY A   5       0.131   0.526  11.419  0.00  0.00    -0.273 OA
ATOM      9  N   ALA A   6      -0.887  -1.515  11.261  0.00  0.00    -0.297 N 
ATOM     10  H   ALA A   6      -1.055  -2.348  10.662  0.00  0.00    +0.150 HD
BRANCH   7  11
ATOM     11  CA  GLY A   5       0.420  -0.697   9.389  0.00  0.00    +0.176 C 
BRANCH  11  14
ATOM     12  C   THR A   4       0.800  -3.063   8.902  0.00  0.00    +0.243 C 
ATOM     13  O   THR A   4       1.840  -3.067   9.550  0.00  0.00    -0.273 OA
ATOM     14  N   GLY A   5       0.042  -1.979   8.755  0.00  0.00    -0.295 N 
ATOM     15  H   GLY A   5      -0.827  -2.034   8.187  0.00  0.00    +0.150 HD
BRANCH  12  16
ATOM     16  CA  THR A   4       0.310  -4.349   8.238  0.00  0.00    +0.176 C 
BRANCH  16  19
ATOM     17  C   ASP A   3      -2.078  -4.218   8.780  0.00  0.00    +0.241 C 
ATOM     18  O   ASP A   3      -1.852  -4.189   9.989  0.00  0.00    -0.273 OA
ATOM     19  N   THR A   4      -1.113  -4.266   7.860  0.00  0.00    -0.295 N 
ATOM     20  H   THR A   4      -1.370  -4.244   6.853  0.00  0.00    +0.150 HD
BRANCH  17  21
ATOM     21  CA  ASP A   3      -3.515  -4.202   8.269  0.00  0.00    +0.160 C 
BRANCH  21  23
ATOM     22  C   VAL A   2      -4.649  -5.977   7.028  0.00  0.00    +0.241 C 
ATOM     23  N   ASP A   3      -4.080  -5.559   8.158  0.00  0.00    -0.297 N 
ATOM     24  H   ASP A   3      -4.034  -6.201   8.975  0.00  0.00    +0.150 HD
ATOM     25  O   VAL A   2      -4.517  -5.383   5.949  0.00  0.00    -0.273 OA
BRANCH  22  26
ATOM     26  CA  VAL A   2      -5.520  -7.232   7.122  0.00  0.00    +0.148 C 
BRANCH  26  29
ATOM     27  C   LEU A   1      -7.627  -6.099   7.612  0.00  0.00    +0.238 C 
ATOM     28  O   LEU A   1      -7.262  -5.820   8.751  0.00  0.00    -0.274 OA
ATOM     29  N   VAL A   2      -6.896  -6.819   6.767  0.00  0.00    -0.297 N 
ATOM     30  H   VAL A   2      -7.295  -7.095   5.847  0.00  0.00    +0.150 HD
BRANCH  27  31
ATOM     31  CA  LEU A   1      -8.988  -5.626   7.111  0.00  0.00    +0.145 C 
BRANCH  31  32
ATOM     32  N   LEU A   1      -9.977  -6.135   8.062  0.00  0.00    -0.238 NA
ATOM     33  H   LEU A   1     -10.419  -5.483   8.741  0.00  0.00    +0.142 HD
ENDBRANCH  31  32
BRANCH  31  34
ATOM     34  CB  LEU A   1      -9.033  -4.108   7.073  0.00  0.00    +0.026 C 
BRANCH  34  35
ATOM     35  CG  LEU A   1      -7.931  -3.412   6.253  0.00  0.00    +0.002 C 
ATOM     36  CD2 LEU A   1      -8.162  -1.888   6.198  0.00  0.00    +0.000 C 
ATOM     37  CD1 LEU A   1      -7.849  -4.023   4.865  0.00  0.00    +0.000 C 
ENDBRANCH  34  35
ENDBRANCH  31  34
ENDBRANCH  27  31
ENDBRANCH  26  29
BRANCH  26  38
ATOM     38  CB  VAL A   2      -5.014  -8.351   6.187  0.00  0.00    +0.027 C 
ATOM     39  CG2 VAL A   2      -3.525  -8.636   6.452  0.00  0.00    +0.002 C 
ATOM     40  CG1 VAL A   2      -5.877  -9.639   6.362  0.00  0.00    +0.002 C 
ENDBRANCH  26  38
ENDBRANCH  22  26
ENDBRANCH  21  23
BRANCH  21  41
ATOM     41  CB  ASP A   3      -4.375  -3.335   9.213  0.00  0.00    +0.143 C 
BRANCH  41  42
ATOM     42  CG  ASP A   3      -4.019  -1.871   9.137  0.00  0.00    +0.367 C 
ATOM     43  OD2 ASP A   3      -4.785  -1.058   9.710  0.00  0.00    -0.246 OA
ATOM     44  OD1 ASP A   3      -2.992  -1.521   8.485  0.00  0.00    -0.246 OA
ENDBRANCH  41  42
ENDBRANCH  21  41
ENDBRANCH  17  21
ENDBRANCH  16  19
BRANCH  16  45
ATOM     45  CB  THR A   4       1.216  -4.709   7.062  0.00  0.00    +0.137 C 
ATOM     46  CG2 THR A   4       0.855  -6.118   6.537  0.00  0.00    +0.034 C 
BRANCH  45  47
ATOM     47  OG1 THR A   4       1.054  -3.717   6.021  0.00  0.00    -0.382 OA
ATOM     48  HG1 THR A   4       1.303  -2.826   6.374  0.00  0.00    +0.210 HD
ENDBRANCH  45  47
ENDBRANCH  16  45
ENDBRANCH  12  16
ENDBRANCH  11  14
ENDBRANCH   7  11
ENDBRANCH   5   9
ENDBRANCH   1   5
BRANCH   2  49
ATOM     49  CA  GLN A   7       0.645  -2.376  15.582  0.00  0.00    +0.149 C 
BRANCH  49  50
ATOM     50  C   GLN A   7      -0.220  -3.381  16.356  0.00  0.00    +0.241 C 
ATOM     51  O   GLN A   7       0.256  -4.486  16.713  0.00  0.00    -0.273 OA
ATOM     52  N   HIS A   8      -1.453  -2.987  16.683  0.00  0.00    -0.297 N 
ATOM     53  H   HIS A   8      -1.785  -2.037  16.420  0.00  0.00    +0.150 HD
BRANCH  52  54
ATOM     54  CA  HIS A   8      -2.342  -3.906  17.420  0.00  0.00    +0.155 C 
BRANCH  54  55
ATOM     55  C   HIS A   8      -3.649  -4.096  16.656  0.00  0.00    +0.241 C 
ATOM     56  N   SER A   9      -4.323  -5.194  16.946  0.00  0.00    -0.295 N 
ATOM     57  H   SER A   9      -3.956  -5.832  17.680  0.00  0.00    +0.150 HD
ATOM     58  O   HIS A   8      -4.051  -3.252  15.859  0.00  0.00    -0.273 OA
BRANCH  56  59
ATOM     59  CA  SER A   9      -5.568  -5.538  16.267  0.00  0.00    +0.178 C 
BRANCH  59  60
ATOM     60  C   SER A   9      -6.734  -4.840  16.961  0.00  0.00    +0.243 C 
ATOM     61  O   SER A   9      -6.676  -4.563  18.162  0.00  0.00    -0.273 OA
ATOM     62  N   VAL A  10      -7.782  -4.586  16.187  0.00  0.00    -0.297 N 
ATOM     63  H   VAL A  10      -7.829  -5.049  15.257  0.00  0.00    +0.150 HD
BRANCH  62  64
ATOM     64  CA  VAL A  10      -8.880  -3.687  16.570  0.00  0.00    +0.149 C 
BRANCH  64  65
ATOM     65  C   VAL A  10     -10.234  -4.316  16.312  0.00  0.00    +0.241 C 
ATOM     66  N   LEU A  11     -11.131  -4.203  17.296  0.00  0.00    -0.298 N 
ATOM     67  H   LEU A  11     -10.816  -3.901  18.240  0.00  0.00    +0.150 HD
ATOM     68  O   VAL A  10     -10.465  -4.881  15.242  0.00  0.00    -0.273 OA
BRANCH  66  69
ATOM     69  CA  LEU A  11     -12.558  -4.497  17.072  0.00  0.00    +0.137 C 
BRANCH  69  70
ATOM     70  C   LEU A  11     -13.339  -3.178  17.110  0.00  0.00    +0.227 C 
ATOM     71  O   LEU A  11     -12.958  -2.238  17.820  0.00  0.00    -0.286 OA
ENDBRANCH  69  70
BRANCH  69  72
ATOM     72  CB  LEU A  11     -13.098  -5.474  18.153  0.00  0.00    +0.028 C 
BRANCH  72  73
ATOM     73  CG  LEU A  11     -12.497  -6.889  18.120  0.00  0.00    +0.002 C 
ATOM     74  CD2 LEU A  11     -13.074  -7.733  19.228  0.00  0.00    +0.000 C 
ATOM     75  CD1 LEU A  11     -12.697  -7.636  16.782  0.00  0.00    +0.000 C 
ENDBRANCH  72  73
ENDBRANCH  69  72
ENDBRANCH  66  69
ENDBRANCH  64  65
BRANCH  64  76
ATOM     76  CB  VAL A  10      -8.749  -2.353  15.768  0.00  0.00    +0.027 C 
ATOM     77  CG2 VAL A  10      -7.599  -1.517  16.356  0.00  0.00    +0.002 C 
ATOM     78  CG1 VAL A  10     -10.039  -1.543  15.795  0.00  0.00    +0.002 C 
ENDBRANCH  64  76
ENDBRANCH  62  64
ENDBRANCH  59  60
BRANCH  59  79
ATOM     79  CB  SER A   9      -5.757  -7.047  16.277  0.00  0.00    +0.166 C 
BRANCH  79  80
ATOM     80  OG  SER A   9      -4.733  -7.629  15.519  0.00  0.00    -0.380 OA
ATOM     81  H   SER A   9      -3.857  -7.395  15.916  0.00  0.00    +0.211 HD
ENDBRANCH  79  80
ENDBRANCH  59  79
ENDBRANCH  56  59
ENDBRANCH  54  55
BRANCH  54  82
ATOM     82  CB  HIS A   8      -2.716  -3.490  18.848  0.00  0.00    +0.076 C 
BRANCH  82  83
ATOM     83  CG  HIS A   8      -2.883  -4.668  19.769  0.00  0.00    +0.082 A 
ATOM     84  ND1 HIS A   8      -1.812  -5.282  20.392  0.00  0.00    -0.227 NA
ATOM     85  CE1 HIS A   8      -2.246  -6.311  21.098  0.00  0.00    +0.199 A 
ATOM     86  NE2 HIS A   8      -3.553  -6.410  20.928  0.00  0.00    -0.221 NA
ATOM     87  CD2 HIS A   8      -3.975  -5.407  20.087  0.00  0.00    +0.115 A 
ENDBRANCH  82  83
ENDBRANCH  54  82
ENDBRANCH  52  54
ENDBRANCH  49  50
BRANCH  49  88
ATOM     88  CB  GLN A   7       1.239  -1.359  16.564  0.00  0.00    +0.039 C 
BRANCH  88  89
ATOM     89  CG  GLN A   7       2.057  -1.976  17.673  0.00  0.00    +0.087 C 
BRANCH  89  90
ATOM     90  CD  GLN A   7       2.732  -0.927  18.529  0.00  0.00    +0.219 C 
ATOM     91  NE2 GLN A   7       3.402  -1.378  19.585  0.00  0.00    -0.329 N 
ATOM     92 HE21 GLN A   7       3.894  -0.710  20.213  0.00  0.00    +0.145 HD
ATOM     93 HE22 GLN A   7       3.434  -2.398  19.784  0.00  0.00    +0.145 HD
ATOM     94  OE1 GLN A   7       2.663   0.274  18.249  0.00  0.00    -0.275 OA
ENDBRANCH  89  90
ENDBRANCH  88  89
ENDBRANCH  49  88
ENDBRANCH   2  49
TORSDOF 39
REMARK  Name = ../refined-set-2016/3sm2/3sm2_pocket.pdb
REMARK  227 active torsions:
REMARK  status: ('A' for Active; 'I' for Inactive)
REMARK    1  A    between atoms: _2  and  _3
REMARK    2  A    between atoms: _8  and  _10
REMARK    3  A    between atoms: _10  and  _11
REMARK    4  A    between atoms: _10  and  _13
REMARK    5  A    between atoms: _13  and  _14
REMARK    6  A    between atoms: _17  and  _19
REMARK    7  A    between atoms: _19  and  _20
REMARK    8  A    between atoms: _19  and  _22
REMARK    9  A    between atoms: _25  and  _27
REMARK   10  A    between atoms: _27  and  _28
REMARK   11  A    between atoms: _27  and  _30
REMARK   12  A    between atoms: _30  and  _31
REMARK   13  A    between atoms: _34  and  _36
REMARK   14  A    between atoms: _36  and  _37
REMARK   15  A    between atoms: _36  and  _39
REMARK   16  A    between atoms: _39  and  _40
REMARK   17  A    between atoms: _43  and  _45
REMARK   18  A    between atoms: _45  and  _46
REMARK   19  A    between atoms: _48  and  _50
REMARK   20  A    between atoms: _50  and  _51
REMARK   21  A    between atoms: _54  and  _56
REMARK   22  A    between atoms: _56  and  _57
REMARK   23  A    between atoms: _56  and  _59
REMARK   24  A    between atoms: _59  and  _60
REMARK   25  A    between atoms: _60  and  _61
REMARK   26  A    between atoms: _66  and  _68
REMARK   27  A    between atoms: _68  and  _69
REMARK   28  A    between atoms: _68  and  _71
REMARK   29  A    between atoms: _71  and  _72
REMARK   30  A    between atoms: _77  and  _79
REMARK   31  A    between atoms: _79  and  _80
REMARK   32  A    between atoms: _79  and  _82
REMARK   33  A    between atoms: _82  and  _83
REMARK   34  A    between atoms: _85  and  _87
REMARK   35  A    between atoms: _87  and  _88
REMARK   36  A    between atoms: _87  and  _90
REMARK   37  A    between atoms: _93  and  _95
REMARK   38  A    between atoms: _95  and  _96
REMARK   39  A    between atoms: _95  and  _98
REMARK   40  A    between atoms: _98  and  _99
REMARK   41  A    between atoms: _102  and  _104
REMARK   42  A    between atoms: _104  and  _105
REMARK   43  A    between atoms: _104  and  _107
REMARK   44  A    between atoms: _107  and  _108
REMARK   45  A    between atoms: _118  and  _120
REMARK   46  A    between atoms: _120  and  _121
REMARK   47  A    between atoms: _120  and  _123
REMARK   48  A    between atoms: _126  and  _128
REMARK   49  A    between atoms: _128  and  _129
REMARK   50  A    between atoms: _128  and  _131
REMARK   51  A    between atoms: _131  and  _132
REMARK   52  A    between atoms: _132  and  _133
REMARK   53  A    between atoms: _138  and  _140
REMARK   54  A    between atoms: _140  and  _141
REMARK   55  A    between atoms: _143  and  _145
REMARK   56  A    between atoms: _145  and  _146
REMARK   57  A    between atoms: _149  and  _151
REMARK   58  A    between atoms: _151  and  _152
REMARK   59  A    between atoms: _151  and  _154
REMARK   60  A    between atoms: _154  and  _155
REMARK   61  A    between atoms: _158  and  _160
REMARK   62  A    between atoms: _160  and  _161
REMARK   63  A    between atoms: _163  and  _165
REMARK   64  A    between atoms: _165  and  _166
REMARK   65  A    between atoms: _165  and  _168
REMARK   66  A    between atoms: _168  and  _169
REMARK   67  A    between atoms: _174  and  _175
REMARK   68  A    between atoms: _177  and  _179
REMARK   69  A    between atoms: _179  and  _180
REMARK   70  A    between atoms: _179  and  _182
REMARK   71  A    between atoms: _182  and  _183
REMARK   72  A    between atoms: _193  and  _195
REMARK   73  A    between atoms: _195  and  _196
REMARK   74  A    between atoms: _195  and  _198
REMARK   75  A    between atoms: _198  and  _199
REMARK   76  A    between atoms: _202  and  _204
REMARK   77  A    between atoms: _204  and  _205
REMARK   78  A    between atoms: _204  and  _207
REMARK   79  A    between atoms: _210  and  _212
REMARK   80  A    between atoms: _212  and  _213
REMARK   81  A    between atoms: _212  and  _215
REMARK   82  A    between atoms: _215  and  _216
REMARK   83  A    between atoms: _219  and  _221
REMARK   84  A    between atoms: _221  and  _222
REMARK   85  A    between atoms: _221  and  _224
REMARK   86  A    between atoms: _227  and  _228
REMARK   87  A    between atoms: _233  and  _235
REMARK   88  A    between atoms: _235  and  _236
REMARK   89  A    between atoms: _235  and  _238
REMARK   90  A    between atoms: _238  and  _239
REMARK   91  A    between atoms: _244  and  _245
REMARK   92  A    between atoms: _248  and  _249
REMARK   93  A    between atoms: _254  and  _256
REMARK   94  A    between atoms: _256  and  _257
REMARK   95  A    between atoms: _256  and  _259
REMARK   96  A    between atoms: _259  and  _260
REMARK   97  A    between atoms: _263  and  _265
REMARK   98  A    between atoms: _265  and  _266
REMARK   99  A    between atoms: _268  and  _270
REMARK  100  A    between atoms: _270  and  _271
REMARK  101  A    between atoms: _270  and  _273
REMARK  102  A    between atoms: _273  and  _274
REMARK  103  A    between atoms: _274  and  _275
REMARK  104  A    between atoms: _275  and  _276
REMARK  105  A    between atoms: _285  and  _287
REMARK  106  A    between atoms: _287  and  _288
REMARK  107  A    between atoms: _287  and  _290
REMARK  108  A    between atoms: _290  and  _291
REMARK  109  A    between atoms: _295  and  _296
REMARK  110  A    between atoms: _301  and  _303
REMARK  111  A    between atoms: _303  and  _304
REMARK  112  A    between atoms: _303  and  _306
REMARK  113  A    between atoms: _306  and  _307
REMARK  114  A    between atoms: _310  and  _312
REMARK  115  A    between atoms: _312  and  _313
REMARK  116  A    between atoms: _312  and  _315
REMARK  117  A    between atoms: _318  and  _320
REMARK  118  A    between atoms: _320  and  _321
REMARK  119  A    between atoms: _320  and  _323
REMARK  120  A    between atoms: _323  and  _324
REMARK  121  A    between atoms: _327  and  _329
REMARK  122  A    between atoms: _329  and  _330
REMARK  123  A    between atoms: _329  and  _332
REMARK  124  A    between atoms: _332  and  _333
REMARK  125  A    between atoms: _336  and  _338
REMARK  126  A    between atoms: _338  and  _339
REMARK  127  A    between atoms: _341  and  _343
REMARK  128  A    between atoms: _343  and  _344
REMARK  129  A    between atoms: _347  and  _349
REMARK  130  A    between atoms: _349  and  _350
REMARK  131  A    between atoms: _349  and  _352
REMARK  132  A    between atoms: _352  and  _353
REMARK  133  A    between atoms: _353  and  _354
REMARK  134  A    between atoms: _359  and  _361
REMARK  135  A    between atoms: _361  and  _362
REMARK  136  A    between atoms: _361  and  _364
REMARK  137  A    between atoms: _364  and  _365
REMARK  138  A    between atoms: _370  and  _372
REMARK  139  A    between atoms: _372  and  _373
REMARK  140  A    between atoms: _372  and  _375
REMARK  141  A    between atoms: _375  and  _376
REMARK  142  A    between atoms: _378  and  _380
REMARK  143  A    between atoms: _380  and  _381
REMARK  144  A    between atoms: _380  and  _383
REMARK  145  A    between atoms: _386  and  _388
REMARK  146  A    between atoms: _388  and  _389
REMARK  147  A    between atoms: _392  and  _394
REMARK  148  A    between atoms: _394  and  _395
REMARK  149  A    between atoms: _394  and  _397
REMARK  150  A    between atoms: _397  and  _398
REMARK  151  A    between atoms: _408  and  _410
REMARK  152  A    between atoms: _410  and  _411
REMARK  153  A    between atoms: _410  and  _413
REMARK  154  A    between atoms: _416  and  _418
REMARK  155  A    between atoms: _418  and  _419
REMARK  156  A    between atoms: _418  and  _421
REMARK  157  A    between atoms: _421  and  _422
REMARK  158  A    between atoms: _422  and  _423
REMARK  159  A    between atoms: _428  and  _430
REMARK  160  A    between atoms: _430  and  _431
REMARK  161  A    between atoms: _433  and  _435
REMARK  162  A    between atoms: _435  and  _436
REMARK  163  A    between atoms: _439  and  _441
REMARK  164  A    between atoms: _441  and  _442
REMARK  165  A    between atoms: _441  and  _444
REMARK  166  A    between atoms: _444  and  _445
REMARK  167  A    between atoms: _448  and  _450
REMARK  168  A    between atoms: _450  and  _451
REMARK  169  A    between atoms: _453  and  _455
REMARK  170  A    between atoms: _455  and  _456
REMARK  171  A    between atoms: _458  and  _460
REMARK  172  A    between atoms: _460  and  _461
REMARK  173  A    between atoms: _460  and  _463
REMARK  174  A    between atoms: _463  and  _464
REMARK  175  A    between atoms: _464  and  _465
REMARK  176  A    between atoms: _465  and  _466
REMARK  177  A    between atoms: _466  and  _467
REMARK  178  A    between atoms: _471  and  _473
REMARK  179  A    between atoms: _473  and  _474
REMARK  180  A    between atoms: _473  and  _476
REMARK  181  A    between atoms: _476  and  _477
REMARK  182  A    between atoms: _482  and  _483
REMARK  183  A    between atoms: _485  and  _487
REMARK  184  A    between atoms: _487  and  _488
REMARK  185  A    between atoms: _487  and  _490
REMARK  186  A    between atoms: _490  and  _491
REMARK  187  A    between atoms: _501  and  _503
REMARK  188  A    between atoms: _503  and  _504
REMARK  189  A    between atoms: _503  and  _506
REMARK  190  A    between atoms: _506  and  _507
REMARK  191  A    between atoms: _510  and  _512
REMARK  192  A    between atoms: _512  and  _513
REMARK  193  A    between atoms: _512  and  _515
REMARK  194  A    between atoms: _518  and  _520
REMARK  195  A    between atoms: _520  and  _521
REMARK  196  A    between atoms: _520  and  _523
REMARK  197  A    between atoms: _523  and  _524
REMARK  198  A    between atoms: _527  and  _529
REMARK  199  A    between atoms: _529  and  _530
REMARK  200  A    between atoms: _529  and  _532
REMARK  201  A    between atoms: _535  and  _536
REMARK  202  A    between atoms: _541  and  _543
REMARK  203  A    between atoms: _543  and  _544
REMARK  204  A    between atoms: _543  and  _546
REMARK  205  A    between atoms: _546  and  _547
REMARK  206  A    between atoms: _552  and  _553
REMARK  207  A    between atoms: _556  and  _557
REMARK  208  A    between atoms: _562  and  _564
REMARK  209  A    between atoms: _564  and  _565
REMARK  210  A    between atoms: _564  and  _567
REMARK  211  A    between atoms: _567  and  _568
REMARK  212  A    between atoms: _571  and  _573
REMARK  213  A    between atoms: _573  and  _574
REMARK  214  A    between atoms: _573  and  _576
REMARK  215  A    between atoms: _576  and  _577
REMARK  216  A    between atoms: _580  and  _582
REMARK  217  A    between atoms: _582  and  _583
REMARK  218  A    between atoms: _585  and  _587
REMARK  219  A    between atoms: _587  and  _588
REMARK  220  A    between atoms: _587  and  _590
REMARK  221  A    between atoms: _590  and  _591
REMARK  222  A    between atoms: _591  and  _592
REMARK  223  A    between atoms: _592  and  _593
REMARK  224  A    between atoms: _602  and  _604
REMARK  225  A    between atoms: _604  and  _605
REMARK  226  A    between atoms: _604  and  _607
REMARK  227  A    between atoms: _607  and  _608
REMARK                            x       y       z     vdW  Elec       q    Type
REMARK                         _______ _______ _______ _____ _____    ______ ____
ROOT
ATOM      1  CA  GLN A   3      -1.784   7.021  17.430  0.00  0.00    +0.149 C 
ENDROOT
BRANCH   1   4
ATOM      2  C   VAL A   2      -3.262   6.072  19.097  0.00  0.00    +0.241 C 
ATOM      3  O   VAL A   2      -4.006   7.034  19.046  0.00  0.00    -0.273 OA
ATOM      4  N   GLN A   3      -2.131   5.994  18.415  0.00  0.00    -0.297 N 
ATOM      5  H   GLN A   3      -1.483   5.197  18.580  0.00  0.00    +0.150 HD
BRANCH   2   6
ATOM      6  CA  VAL A   2      -3.613   4.881  19.987  0.00  0.00    +0.148 C 
BRANCH   6   9
ATOM      7  C   TRP A   1      -2.887   4.965  22.304  0.00  0.00    +0.239 C 
ATOM      8  O   TRP A   1      -1.957   4.212  22.081  0.00  0.00    -0.274 OA
ATOM      9  N   VAL A   2      -3.751   5.324  21.365  0.00  0.00    -0.297 N 
ATOM     10  H   VAL A   2      -4.549   5.939  21.621  0.00  0.00    +0.150 HD
BRANCH   7  11
ATOM     11  CA  TRP A   1      -3.096   5.511  23.706  0.00  0.00    +0.149 C 
BRANCH  11  12
ATOM     12  N   TRP A   1      -3.098   4.380  24.624  0.00  0.00    -0.238 NA
ATOM     13  H   TRP A   1      -2.235   4.163  25.162  0.00  0.00    +0.142 HD
ENDBRANCH  11  12
BRANCH  11  14
ATOM     14  CB  TRP A   1      -1.931   6.439  24.046  0.00  0.00    +0.054 C 
BRANCH  14  15
ATOM     15  CG  TRP A   1      -2.037   7.677  23.247  0.00  0.00    -0.002 A 
ATOM     16  CD2 TRP A   1      -2.976   8.726  23.449  0.00  0.00    +0.013 A 
ATOM     17  CE3 TRP A   1      -3.984   8.959  24.400  0.00  0.00    +0.001 A 
ATOM     18  CZ3 TRP A   1      -4.724  10.136  24.313  0.00  0.00    +0.000 A 
ATOM     19  CH2 TRP A   1      -4.475  11.073  23.288  0.00  0.00    +0.001 A 
ATOM     20  CZ2 TRP A   1      -3.495  10.863  22.341  0.00  0.00    +0.017 A 
ATOM     21  CE2 TRP A   1      -2.758   9.683  22.427  0.00  0.00    +0.056 A 
ATOM     22  NE1 TRP A   1      -1.741   9.211  21.638  0.00  0.00    -0.352 N 
ATOM     23  HE1 TRP A   1      -1.352   9.691  20.802  0.00  0.00    +0.166 HD
ATOM     24  CD1 TRP A   1      -1.319   7.997  22.133  0.00  0.00    +0.068 A 
ENDBRANCH  14  15
ENDBRANCH  11  14
ENDBRANCH   7  11
ENDBRANCH   6   9
BRANCH   6  25
ATOM     25  CB  VAL A   2      -4.926   4.245  19.480  0.00  0.00    +0.027 C 
ATOM     26  CG2 VAL A   2      -5.271   3.016  20.336  0.00  0.00    +0.002 C 
ATOM     27  CG1 VAL A   2      -4.862   3.908  17.948  0.00  0.00    +0.002 C 
ENDBRANCH   6  25
ENDBRANCH   2   6
ENDBRANCH   1   4
BRANCH   1  28
ATOM     28  C   GLN A   3      -2.323   6.586  16.073  0.00  0.00    +0.241 C 
ATOM     29  O   GLN A   3      -1.932   5.530  15.538  0.00  0.00    -0.273 OA
ATOM     30  N   GLY A   4      -3.216   7.396  15.518  0.00  0.00    -0.295 N 
ATOM     31  H   GLY A   4      -3.570   8.212  16.057  0.00  0.00    +0.150 HD
BRANCH  30  32
ATOM     32  CA  GLY A   4      -3.709   7.162  14.167  0.00  0.00    +0.176 C 
BRANCH  32  33
ATOM     33  C   GLY A   4      -3.054   8.153  13.205  0.00  0.00    +0.243 C 
ATOM     34  O   GLY A   4      -2.234   8.984  13.615  0.00  0.00    -0.273 OA
ATOM     35  N   ALA A   5      -3.409   8.043  11.931  0.00  0.00    -0.297 N 
ATOM     36  H   ALA A   5      -4.103   7.314  11.670  0.00  0.00    +0.150 HD
BRANCH  35  37
ATOM     37  CA  ALA A   5      -2.865   8.905  10.872  0.00  0.00    +0.149 C 
ATOM     38  CB  ALA A   5      -3.328   8.412   9.466  0.00  0.00    +0.031 C 
BRANCH  37  39
ATOM     39  C   ALA A   5      -3.223  10.377  11.041  0.00  0.00    +0.241 C 
ATOM     40  N   THR A   6      -4.344  10.662  11.709  0.00  0.00    -0.295 N 
ATOM     41  H   THR A   6      -4.850   9.893  12.194  0.00  0.00    +0.150 HD
ATOM     42  O   ALA A   5      -2.476  11.230  10.577  0.00  0.00    -0.273 OA
BRANCH  40  43
ATOM     43  CA  THR A   6      -4.887  12.028  11.781  0.00  0.00    +0.176 C 
BRANCH  43  44
ATOM     44  C   THR A   6      -4.873  12.597  13.195  0.00  0.00    +0.243 C 
ATOM     45  N   GLY A   7      -4.420  11.808  14.170  0.00  0.00    -0.296 N 
ATOM     46  H   GLY A   7      -4.058  10.863  13.931  0.00  0.00    +0.150 HD
ATOM     47  O   THR A   6      -5.253  13.747  13.401  0.00  0.00    -0.273 OA
BRANCH  45  48
ATOM     48  CA  GLY A   7      -4.420  12.240  15.568  0.00  0.00    +0.163 C 
BRANCH  48  49
ATOM     49  C   GLY A   7      -4.327  11.021  16.488  0.00  0.00    +0.229 C 
ATOM     50  O   GLY A   7      -4.060   9.943  16.017  0.00  0.00    -0.286 OA
ENDBRANCH  48  49
ENDBRANCH  45  48
ENDBRANCH  43  44
BRANCH  43  51
ATOM     51  CB  THR A   6      -6.346  12.113  11.214  0.00  0.00    +0.137 C 
ATOM     52  CG2 THR A   6      -6.456  11.370   9.894  0.00  0.00    +0.034 C 
BRANCH  51  53
ATOM     53  OG1 THR A   6      -7.276  11.573  12.172  0.00  0.00    -0.382 OA
ATOM     54  HG1 THR A   6      -7.050  10.626  12.352  0.00  0.00    +0.210 HD
ENDBRANCH  51  53
ENDBRANCH  43  51
ENDBRANCH  40  43
ENDBRANCH  37  39
ENDBRANCH  35  37
ENDBRANCH  32  33
ENDBRANCH  30  32
ENDBRANCH   1  28
BRANCH   1  55
ATOM     55  CB  GLN A   3      -0.276   7.278  17.332  0.00  0.00    +0.039 C 
BRANCH  55  56
ATOM     56  CG  GLN A   3       0.001   8.391  16.266  0.00  0.00    +0.087 C 
BRANCH  56  57
ATOM     57  CD  GLN A   3       1.461   8.721  16.026  0.00  0.00    +0.219 C 
ATOM     58  NE2 GLN A   3       2.335   7.763  16.219  0.00  0.00    -0.329 N 
ATOM     59 HE21 GLN A   3       2.018   6.827  16.544  0.00  0.00    +0.145 HD
ATOM     60 HE22 GLN A   3       3.346   7.939  16.047  0.00  0.00    +0.145 HD
ATOM     61  OE1 GLN A   3       1.790   9.853  15.639  0.00  0.00    -0.275 OA
ENDBRANCH  56  57
ENDBRANCH  55  56
ENDBRANCH   1  55
TORSDOF 22
REMARK  Name = ../refined-set-2016/3sm2/3sm2_pocket.pdb
REMARK  227 active torsions:
REMARK  status: ('A' for Active; 'I' for Inactive)
REMARK    1  A    between atoms: _2  and  _3
REMARK    2  A    between atoms: _8  and  _10
REMARK    3  A    between atoms: _10  and  _11
REMARK    4  A    between atoms: _10  and  _13
REMARK    5  A    between atoms: _13  and  _14
REMARK    6  A    between atoms: _17  and  _19
REMARK    7  A    between atoms: _19  and  _20
REMARK    8  A    between atoms: _19  and  _22
REMARK    9  A    between atoms: _25  and  _27
REMARK   10  A    between atoms: _27  and  _28
REMARK   11  A    between atoms: _27  and  _30
REMARK   12  A    between atoms: _30  and  _31
REMARK   13  A    between atoms: _34  and  _36
REMARK   14  A    between atoms: _36  and  _37
REMARK   15  A    between atoms: _36  and  _39
REMARK   16  A    between atoms: _39  and  _40
REMARK   17  A    between atoms: _43  and  _45
REMARK   18  A    between atoms: _45  and  _46
REMARK   19  A    between atoms: _48  and  _50
REMARK   20  A    between atoms: _50  and  _51
REMARK   21  A    between atoms: _54  and  _56
REMARK   22  A    between atoms: _56  and  _57
REMARK   23  A    between atoms: _56  and  _59
REMARK   24  A    between atoms: _59  and  _60
REMARK   25  A    between atoms: _60  and  _61
REMARK   26  A    between atoms: _66  and  _68
REMARK   27  A    between atoms: _68  and  _69
REMARK   28  A    between atoms: _68  and  _71
REMARK   29  A    between atoms: _71  and  _72
REMARK   30  A    between atoms: _77  and  _79
REMARK   31  A    between atoms: _79  and  _80
REMARK   32  A    between atoms: _79  and  _82
REMARK   33  A    between atoms: _82  and  _83
REMARK   34  A    between atoms: _85  and  _87
REMARK   35  A    between atoms: _87  and  _88
REMARK   36  A    between atoms: _87  and  _90
REMARK   37  A    between atoms: _93  and  _95
REMARK   38  A    between atoms: _95  and  _96
REMARK   39  A    between atoms: _95  and  _98
REMARK   40  A    between atoms: _98  and  _99
REMARK   41  A    between atoms: _102  and  _104
REMARK   42  A    between atoms: _104  and  _105
REMARK   43  A    between atoms: _104  and  _107
REMARK   44  A    between atoms: _107  and  _108
REMARK   45  A    between atoms: _118  and  _120
REMARK   46  A    between atoms: _120  and  _121
REMARK   47  A    between atoms: _120  and  _123
REMARK   48  A    between atoms: _126  and  _128
REMARK   49  A    between atoms: _128  and  _129
REMARK   50  A    between atoms: _128  and  _131
REMARK   51  A    between atoms: _131  and  _132
REMARK   52  A    between atoms: _132  and  _133
REMARK   53  A    between atoms: _138  and  _140
REMARK   54  A    between atoms: _140  and  _141
REMARK   55  A    between atoms: _143  and  _145
REMARK   56  A    between atoms: _145  and  _146
REMARK   57  A    between atoms: _149  and  _151
REMARK   58  A    between atoms: _151  and  _152
REMARK   59  A    between atoms: _151  and  _154
REMARK   60  A    between atoms: _154  and  _155
REMARK   61  A    between atoms: _158  and  _160
REMARK   62  A    between atoms: _160  and  _161
REMARK   63  A    between atoms: _163  and  _165
REMARK   64  A    between atoms: _165  and  _166
REMARK   65  A    between atoms: _165  and  _168
REMARK   66  A    between atoms: _168  and  _169
REMARK   67  A    between atoms: _174  and  _175
REMARK   68  A    between atoms: _177  and  _179
REMARK   69  A    between atoms: _179  and  _180
REMARK   70  A    between atoms: _179  and  _182
REMARK   71  A    between atoms: _182  and  _183
REMARK   72  A    between atoms: _193  and  _195
REMARK   73  A    between atoms: _195  and  _196
REMARK   74  A    between atoms: _195  and  _198
REMARK   75  A    between atoms: _198  and  _199
REMARK   76  A    between atoms: _202  and  _204
REMARK   77  A    between atoms: _204  and  _205
REMARK   78  A    between atoms: _204  and  _207
REMARK   79  A    between atoms: _210  and  _212
REMARK   80  A    between atoms: _212  and  _213
REMARK   81  A    between atoms: _212  and  _215
REMARK   82  A    between atoms: _215  and  _216
REMARK   83  A    between atoms: _219  and  _221
REMARK   84  A    between atoms: _221  and  _222
REMARK   85  A    between atoms: _221  and  _224
REMARK   86  A    between atoms: _227  and  _228
REMARK   87  A    between atoms: _233  and  _235
REMARK   88  A    between atoms: _235  and  _236
REMARK   89  A    between atoms: _235  and  _238
REMARK   90  A    between atoms: _238  and  _239
REMARK   91  A    between atoms: _244  and  _245
REMARK   92  A    between atoms: _248  and  _249
REMARK   93  A    between atoms: _254  and  _256
REMARK   94  A    between atoms: _256  and  _257
REMARK   95  A    between atoms: _256  and  _259
REMARK   96  A    between atoms: _259  and  _260
REMARK   97  A    between atoms: _263  and  _265
REMARK   98  A    between atoms: _265  and  _266
REMARK   99  A    between atoms: _268  and  _270
REMARK  100  A    between atoms: _270  and  _271
REMARK  101  A    between atoms: _270  and  _273
REMARK  102  A    between atoms: _273  and  _274
REMARK  103  A    between atoms: _274  and  _275
REMARK  104  A    between atoms: _275  and  _276
REMARK  105  A    between atoms: _285  and  _287
REMARK  106  A    between atoms: _287  and  _288
REMARK  107  A    between atoms: _287  and  _290
REMARK  108  A    between atoms: _290  and  _291
REMARK  109  A    between atoms: _295  and  _296
REMARK  110  A    between atoms: _301  and  _303
REMARK  111  A    between atoms: _303  and  _304
REMARK  112  A    between atoms: _303  and  _306
REMARK  113  A    between atoms: _306  and  _307
REMARK  114  A    between atoms: _310  and  _312
REMARK  115  A    between atoms: _312  and  _313
REMARK  116  A    between atoms: _312  and  _315
REMARK  117  A    between atoms: _318  and  _320
REMARK  118  A    between atoms: _320  and  _321
REMARK  119  A    between atoms: _320  and  _323
REMARK  120  A    between atoms: _323  and  _324
REMARK  121  A    between atoms: _327  and  _329
REMARK  122  A    between atoms: _329  and  _330
REMARK  123  A    between atoms: _329  and  _332
REMARK  124  A    between atoms: _332  and  _333
REMARK  125  A    between atoms: _336  and  _338
REMARK  126  A    between atoms: _338  and  _339
REMARK  127  A    between atoms: _341  and  _343
REMARK  128  A    between atoms: _343  and  _344
REMARK  129  A    between atoms: _347  and  _349
REMARK  130  A    between atoms: _349  and  _350
REMARK  131  A    between atoms: _349  and  _352
REMARK  132  A    between atoms: _352  and  _353
REMARK  133  A    between atoms: _353  and  _354
REMARK  134  A    between atoms: _359  and  _361
REMARK  135  A    between atoms: _361  and  _362
REMARK  136  A    between atoms: _361  and  _364
REMARK  137  A    between atoms: _364  and  _365
REMARK  138  A    between atoms: _370  and  _372
REMARK  139  A    between atoms: _372  and  _373
REMARK  140  A    between atoms: _372  and  _375
REMARK  141  A    between atoms: _375  and  _376
REMARK  142  A    between atoms: _378  and  _380
REMARK  143  A    between atoms: _380  and  _381
REMARK  144  A    between atoms: _380  and  _383
REMARK  145  A    between atoms: _386  and  _388
REMARK  146  A    between atoms: _388  and  _389
REMARK  147  A    between atoms: _392  and  _394
REMARK  148  A    between atoms: _394  and  _395
REMARK  149  A    between atoms: _394  and  _397
REMARK  150  A    between atoms: _397  and  _398
REMARK  151  A    between atoms: _408  and  _410
REMARK  152  A    between atoms: _410  and  _411
REMARK  153  A    between atoms: _410  and  _413
REMARK  154  A    between atoms: _416  and  _418
REMARK  155  A    between atoms: _418  and  _419
REMARK  156  A    between atoms: _418  and  _421
REMARK  157  A    between atoms: _421  and  _422
REMARK  158  A    between atoms: _422  and  _423
REMARK  159  A    between atoms: _428  and  _430
REMARK  160  A    between atoms: _430  and  _431
REMARK  161  A    between atoms: _433  and  _435
REMARK  162  A    between atoms: _435  and  _436
REMARK  163  A    between atoms: _439  and  _441
REMARK  164  A    between atoms: _441  and  _442
REMARK  165  A    between atoms: _441  and  _444
REMARK  166  A    between atoms: _444  and  _445
REMARK  167  A    between atoms: _448  and  _450
REMARK  168  A    between atoms: _450  and  _451
REMARK  169  A    between atoms: _453  and  _455
REMARK  170  A    between atoms: _455  and  _456
REMARK  171  A    between atoms: _458  and  _460
REMARK  172  A    between atoms: _460  and  _461
REMARK  173  A    between atoms: _460  and  _463
REMARK  174  A    between atoms: _463  and  _464
REMARK  175  A    between atoms: _464  and  _465
REMARK  176  A    between atoms: _465  and  _466
REMARK  177  A    between atoms: _466  and  _467
REMARK  178  A    between atoms: _471  and  _473
REMARK  179  A    between atoms: _473  and  _474
REMARK  180  A    between atoms: _473  and  _476
REMARK  181  A    between atoms: _476  and  _477
REMARK  182  A    between atoms: _482  and  _483
REMARK  183  A    between atoms: _485  and  _487
REMARK  184  A    between atoms: _487  and  _488
REMARK  185  A    between atoms: _487  and  _490
REMARK  186  A    between atoms: _490  and  _491
REMARK  187  A    between atoms: _501  and  _503
REMARK  188  A    between atoms: _503  and  _504
REMARK  189  A    between atoms: _503  and  _506
REMARK  190  A    between atoms: _506  and  _507
REMARK  191  A    between atoms: _510  and  _512
REMARK  192  A    between atoms: _512  and  _513
REMARK  193  A    between atoms: _512  and  _515
REMARK  194  A    between atoms: _518  and  _520
REMARK  195  A    between atoms: _520  and  _521
REMARK  196  A    between atoms: _520  and  _523
REMARK  197  A    between atoms: _523  and  _524
REMARK  198  A    between atoms: _527  and  _529
REMARK  199  A    between atoms: _529  and  _530
REMARK  200  A    between atoms: _529  and  _532
REMARK  201  A    between atoms: _535  and  _536
REMARK  202  A    between atoms: _541  and  _543
REMARK  203  A    between atoms: _543  and  _544
REMARK  204  A    between atoms: _543  and  _546
REMARK  205  A    between atoms: _546  and  _547
REMARK  206  A    between atoms: _552  and  _553
REMARK  207  A    between atoms: _556  and  _557
REMARK  208  A    between atoms: _562  and  _564
REMARK  209  A    between atoms: _564  and  _565
REMARK  210  A    between atoms: _564  and  _567
REMARK  211  A    between atoms: _567  and  _568
REMARK  212  A    between atoms: _571  and  _573
REMARK  213  A    between atoms: _573  and  _574
REMARK  214  A    between atoms: _573  and  _576
REMARK  215  A    between atoms: _576  and  _577
REMARK  216  A    between atoms: _580  and  _582
REMARK  217  A    between atoms: _582  and  _583
REMARK  218  A    between atoms: _585  and  _587
REMARK  219  A    between atoms: _587  and  _588
REMARK  220  A    between atoms: _587  and  _590
REMARK  221  A    between atoms: _590  and  _591
REMARK  222  A    between atoms: _591  and  _592
REMARK  223  A    between atoms: _592  and  _593
REMARK  224  A    between atoms: _602  and  _604
REMARK  225  A    between atoms: _604  and  _605
REMARK  226  A    between atoms: _604  and  _607
REMARK  227  A    between atoms: _607  and  _608
REMARK                            x       y       z     vdW  Elec       q    Type
REMARK                         _______ _______ _______ _____ _____    ______ ____
ROOT
ATOM      1  CG  TYR A   1      -9.440   3.915  21.437  0.00  0.00    -0.020 A 
ATOM      2  CD2 TYR A   1     -10.770   4.257  21.187  0.00  0.00    -0.001 A 
ATOM      3  CE2 TYR A   1     -11.092   5.258  20.237  0.00  0.00    +0.036 A 
ATOM      4  CZ  TYR A   1     -10.062   5.880  19.550  0.00  0.00    +0.134 A 
ATOM      5  CE1 TYR A   1      -8.755   5.566  19.789  0.00  0.00    +0.036 A 
ATOM      6  CD1 TYR A   1      -8.435   4.579  20.739  0.00  0.00    -0.001 A 
ENDROOT
BRANCH   4   7
ATOM      7  OH  TYR A   1     -10.332   6.828  18.604  0.00  0.00    -0.506 OA
ATOM      8  HH  TYR A   1     -11.311   6.954  18.535  0.00  0.00    +0.292 HD
ENDBRANCH   4   7
BRANCH   1   9
ATOM      9  CB  TYR A   1      -9.087   2.870  22.453  0.00  0.00    +0.051 C 
BRANCH   9  10
ATOM     10  CA  TYR A   1      -9.112   3.407  23.864  0.00  0.00    +0.137 C 
BRANCH  10  11
ATOM     11  N   TYR A   1      -8.082   4.450  24.045  0.00  0.00    -0.239 NA
ATOM     12  H   TYR A   1      -7.085   4.170  24.137  0.00  0.00    +0.142 HD
ENDBRANCH  10  11
BRANCH  10  13
ATOM     13  C   TYR A   1      -8.971   2.239  24.827  0.00  0.00    +0.224 C 
ATOM     14  O   TYR A   1      -7.892   1.967  25.332  0.00  0.00    -0.287 OA
ENDBRANCH  10  13
ENDBRANCH   9  10
ENDBRANCH   1   9
TORSDOF 5
REMARK  Name = ../refined-set-2016/3sm2/3sm2_pocket.pdb
REMARK  227 active torsions:
REMARK  status: ('A' for Active; 'I' for Inactive)
REMARK    1  A    between atoms: _2  and  _3
REMARK    2  A    between atoms: _8  and  _10
REMARK    3  A    between atoms: _10  and  _11
REMARK    4  A    between atoms: _10  and  _13
REMARK    5  A    between atoms: _13  and  _14
REMARK    6  A    between atoms: _17  and  _19
REMARK    7  A    between atoms: _19  and  _20
REMARK    8  A    between atoms: _19  and  _22
REMARK    9  A    between atoms: _25  and  _27
REMARK   10  A    between atoms: _27  and  _28
REMARK   11  A    between atoms: _27  and  _30
REMARK   12  A    between atoms: _30  and  _31
REMARK   13  A    between atoms: _34  and  _36
REMARK   14  A    between atoms: _36  and  _37
REMARK   15  A    between atoms: _36  and  _39
REMARK   16  A    between atoms: _39  and  _40
REMARK   17  A    between atoms: _43  and  _45
REMARK   18  A    between atoms: _45  and  _46
REMARK   19  A    between atoms: _48  and  _50
REMARK   20  A    between atoms: _50  and  _51
REMARK   21  A    between atoms: _54  and  _56
REMARK   22  A    between atoms: _56  and  _57
REMARK   23  A    between atoms: _56  and  _59
REMARK   24  A    between atoms: _59  and  _60
REMARK   25  A    between atoms: _60  and  _61
REMARK   26  A    between atoms: _66  and  _68
REMARK   27  A    between atoms: _68  and  _69
REMARK   28  A    between atoms: _68  and  _71
REMARK   29  A    between atoms: _71  and  _72
REMARK   30  A    between atoms: _77  and  _79
REMARK   31  A    between atoms: _79  and  _80
REMARK   32  A    between atoms: _79  and  _82
REMARK   33  A    between atoms: _82  and  _83
REMARK   34  A    between atoms: _85  and  _87
REMARK   35  A    between atoms: _87  and  _88
REMARK   36  A    between atoms: _87  and  _90
REMARK   37  A    between atoms: _93  and  _95
REMARK   38  A    between atoms: _95  and  _96
REMARK   39  A    between atoms: _95  and  _98
REMARK   40  A    between atoms: _98  and  _99
REMARK   41  A    between atoms: _102  and  _104
REMARK   42  A    between atoms: _104  and  _105
REMARK   43  A    between atoms: _104  and  _107
REMARK   44  A    between atoms: _107  and  _108
REMARK   45  A    between atoms: _118  and  _120
REMARK   46  A    between atoms: _120  and  _121
REMARK   47  A    between atoms: _120  and  _123
REMARK   48  A    between atoms: _126  and  _128
REMARK   49  A    between atoms: _128  and  _129
REMARK   50  A    between atoms: _128  and  _131
REMARK   51  A    between atoms: _131  and  _132
REMARK   52  A    between atoms: _132  and  _133
REMARK   53  A    between atoms: _138  and  _140
REMARK   54  A    between atoms: _140  and  _141
REMARK   55  A    between atoms: _143  and  _145
REMARK   56  A    between atoms: _145  and  _146
REMARK   57  A    between atoms: _149  and  _151
REMARK   58  A    between atoms: _151  and  _152
REMARK   59  A    between atoms: _151  and  _154
REMARK   60  A    between atoms: _154  and  _155
REMARK   61  A    between atoms: _158  and  _160
REMARK   62  A    between atoms: _160  and  _161
REMARK   63  A    between atoms: _163  and  _165
REMARK   64  A    between atoms: _165  and  _166
REMARK   65  A    between atoms: _165  and  _168
REMARK   66  A    between atoms: _168  and  _169
REMARK   67  A    between atoms: _174  and  _175
REMARK   68  A    between atoms: _177  and  _179
REMARK   69  A    between atoms: _179  and  _180
REMARK   70  A    between atoms: _179  and  _182
REMARK   71  A    between atoms: _182  and  _183
REMARK   72  A    between atoms: _193  and  _195
REMARK   73  A    between atoms: _195  and  _196
REMARK   74  A    between atoms: _195  and  _198
REMARK   75  A    between atoms: _198  and  _199
REMARK   76  A    between atoms: _202  and  _204
REMARK   77  A    between atoms: _204  and  _205
REMARK   78  A    between atoms: _204  and  _207
REMARK   79  A    between atoms: _210  and  _212
REMARK   80  A    between atoms: _212  and  _213
REMARK   81  A    between atoms: _212  and  _215
REMARK   82  A    between atoms: _215  and  _216
REMARK   83  A    between atoms: _219  and  _221
REMARK   84  A    between atoms: _221  and  _222
REMARK   85  A    between atoms: _221  and  _224
REMARK   86  A    between atoms: _227  and  _228
REMARK   87  A    between atoms: _233  and  _235
REMARK   88  A    between atoms: _235  and  _236
REMARK   89  A    between atoms: _235  and  _238
REMARK   90  A    between atoms: _238  and  _239
REMARK   91  A    between atoms: _244  and  _245
REMARK   92  A    between atoms: _248  and  _249
REMARK   93  A    between atoms: _254  and  _256
REMARK   94  A    between atoms: _256  and  _257
REMARK   95  A    between atoms: _256  and  _259
REMARK   96  A    between atoms: _259  and  _260
REMARK   97  A    between atoms: _263  and  _265
REMARK   98  A    between atoms: _265  and  _266
REMARK   99  A    between atoms: _268  and  _270
REMARK  100  A    between atoms: _270  and  _271
REMARK  101  A    between atoms: _270  and  _273
REMARK  102  A    between atoms: _273  and  _274
REMARK  103  A    between atoms: _274  and  _275
REMARK  104  A    between atoms: _275  and  _276
REMARK  105  A    between atoms: _285  and  _287
REMARK  106  A    between atoms: _287  and  _288
REMARK  107  A    between atoms: _287  and  _290
REMARK  108  A    between atoms: _290  and  _291
REMARK  109  A    between atoms: _295  and  _296
REMARK  110  A    between atoms: _301  and  _303
REMARK  111  A    between atoms: _303  and  _304
REMARK  112  A    between atoms: _303  and  _306
REMARK  113  A    between atoms: _306  and  _307
REMARK  114  A    between atoms: _310  and  _312
REMARK  115  A    between atoms: _312  and  _313
REMARK  116  A    between atoms: _312  and  _315
REMARK  117  A    between atoms: _318  and  _320
REMARK  118  A    between atoms: _320  and  _321
REMARK  119  A    between atoms: _320  and  _323
REMARK  120  A    between atoms: _323  and  _324
REMARK  121  A    between atoms: _327  and  _329
REMARK  122  A    between atoms: _329  and  _330
REMARK  123  A    between atoms: _329  and  _332
REMARK  124  A    between atoms: _332  and  _333
REMARK  125  A    between atoms: _336  and  _338
REMARK  126  A    between atoms: _338  and  _339
REMARK  127  A    between atoms: _341  and  _343
REMARK  128  A    between atoms: _343  and  _344
REMARK  129  A    between atoms: _347  and  _349
REMARK  130  A    between atoms: _349  and  _350
REMARK  131  A    between atoms: _349  and  _352
REMARK  132  A    between atoms: _352  and  _353
REMARK  133  A    between atoms: _353  and  _354
REMARK  134  A    between atoms: _359  and  _361
REMARK  135  A    between atoms: _361  and  _362
REMARK  136  A    between atoms: _361  and  _364
REMARK  137  A    between atoms: _364  and  _365
REMARK  138  A    between atoms: _370  and  _372
REMARK  139  A    between atoms: _372  and  _373
REMARK  140  A    between atoms: _372  and  _375
REMARK  141  A    between atoms: _375  and  _376
REMARK  142  A    between atoms: _378  and  _380
REMARK  143  A    between atoms: _380  and  _381
REMARK  144  A    between atoms: _380  and  _383
REMARK  145  A    between atoms: _386  and  _388
REMARK  146  A    between atoms: _388  and  _389
REMARK  147  A    between atoms: _392  and  _394
REMARK  148  A    between atoms: _394  and  _395
REMARK  149  A    between atoms: _394  and  _397
REMARK  150  A    between atoms: _397  and  _398
REMARK  151  A    between atoms: _408  and  _410
REMARK  152  A    between atoms: _410  and  _411
REMARK  153  A    between atoms: _410  and  _413
REMARK  154  A    between atoms: _416  and  _418
REMARK  155  A    between atoms: _418  and  _419
REMARK  156  A    between atoms: _418  and  _421
REMARK  157  A    between atoms: _421  and  _422
REMARK  158  A    between atoms: _422  and  _423
REMARK  159  A    between atoms: _428  and  _430
REMARK  160  A    between atoms: _430  and  _431
REMARK  161  A    between atoms: _433  and  _435
REMARK  162  A    between atoms: _435  and  _436
REMARK  163  A    between atoms: _439  and  _441
REMARK  164  A    between atoms: _441  and  _442
REMARK  165  A    between atoms: _441  and  _444
REMARK  166  A    between atoms: _444  and  _445
REMARK  167  A    between atoms: _448  and  _450
REMARK  168  A    between atoms: _450  and  _451
REMARK  169  A    between atoms: _453  and  _455
REMARK  170  A    between atoms: _455  and  _456
REMARK  171  A    between atoms: _458  and  _460
REMARK  172  A    between atoms: _460  and  _461
REMARK  173  A    between atoms: _460  and  _463
REMARK  174  A    between atoms: _463  and  _464
REMARK  175  A    between atoms: _464  and  _465
REMARK  176  A    between atoms: _465  and  _466
REMARK  177  A    between atoms: _466  and  _467
REMARK  178  A    between atoms: _471  and  _473
REMARK  179  A    between atoms: _473  and  _474
REMARK  180  A    between atoms: _473  and  _476
REMARK  181  A    between atoms: _476  and  _477
REMARK  182  A    between atoms: _482  and  _483
REMARK  183  A    between atoms: _485  and  _487
REMARK  184  A    between atoms: _487  and  _488
REMARK  185  A    between atoms: _487  and  _490
REMARK  186  A    between atoms: _490  and  _491
REMARK  187  A    between atoms: _501  and  _503
REMARK  188  A    between atoms: _503  and  _504
REMARK  189  A    between atoms: _503  and  _506
REMARK  190  A    between atoms: _506  and  _507
REMARK  191  A    between atoms: _510  and  _512
REMARK  192  A    between atoms: _512  and  _513
REMARK  193  A    between atoms: _512  and  _515
REMARK  194  A    between atoms: _518  and  _520
REMARK  195  A    between atoms: _520  and  _521
REMARK  196  A    between atoms: _520  and  _523
REMARK  197  A    between atoms: _523  and  _524
REMARK  198  A    between atoms: _527  and  _529
REMARK  199  A    between atoms: _529  and  _530
REMARK  200  A    between atoms: _529  and  _532
REMARK  201  A    between atoms: _535  and  _536
REMARK  202  A    between atoms: _541  and  _543
REMARK  203  A    between atoms: _543  and  _544
REMARK  204  A    between atoms: _543  and  _546
REMARK  205  A    between atoms: _546  and  _547
REMARK  206  A    between atoms: _552  and  _553
REMARK  207  A    between atoms: _556  and  _557
REMARK  208  A    between atoms: _562  and  _564
REMARK  209  A    between atoms: _564  and  _565
REMARK  210  A    between atoms: _564  and  _567
REMARK  211  A    between atoms: _567  and  _568
REMARK  212  A    between atoms: _571  and  _573
REMARK  213  A    between atoms: _573  and  _574
REMARK  214  A    between atoms: _573  and  _576
REMARK  215  A    between atoms: _576  and  _577
REMARK  216  A    between atoms: _580  and  _582
REMARK  217  A    between atoms: _582  and  _583
REMARK  218  A    between atoms: _585  and  _587
REMARK  219  A    between atoms: _587  and  _588
REMARK  220  A    between atoms: _587  and  _590
REMARK  221  A    between atoms: _590  and  _591
REMARK  222  A    between atoms: _591  and  _592
REMARK  223  A    between atoms: _592  and  _593
REMARK  224  A    between atoms: _602  and  _604
REMARK  225  A    between atoms: _604  and  _605
REMARK  226  A    between atoms: _604  and  _607
REMARK  227  A    between atoms: _607  and  _608
REMARK                            x       y       z     vdW  Elec       q    Type
REMARK                         _______ _______ _______ _____ _____    ______ ____
ROOT
ATOM      1  CG  TRP A   1      -6.215  -3.207  26.126  0.00  0.00    -0.002 A 
ATOM      2  CD1 TRP A   1      -5.513  -2.277  26.870  0.00  0.00    +0.068 A 
ATOM      3  NE1 TRP A   1      -4.306  -2.016  26.266  0.00  0.00    -0.352 N 
ATOM      4  HE1 TRP A   1      -3.577  -1.367  26.624  0.00  0.00    +0.166 HD
ATOM      5  CE2 TRP A   1      -4.223  -2.755  25.112  0.00  0.00    +0.056 A 
ATOM      6  CZ2 TRP A   1      -3.207  -2.822  24.161  0.00  0.00    +0.017 A 
ATOM      7  CH2 TRP A   1      -3.391  -3.658  23.091  0.00  0.00    +0.001 A 
ATOM      8  CZ3 TRP A   1      -4.556  -4.441  22.957  0.00  0.00    +0.000 A 
ATOM      9  CE3 TRP A   1      -5.575  -4.372  23.902  0.00  0.00    +0.001 A 
ATOM     10  CD2 TRP A   1      -5.406  -3.527  25.010  0.00  0.00    +0.013 A 
ENDROOT
BRANCH   1  11
ATOM     11  CB  TRP A   1      -7.578  -3.782  26.433  0.00  0.00    +0.053 C 
BRANCH  11  12
ATOM     12  CA  TRP A   1      -8.737  -3.147  25.640  0.00  0.00    +0.137 C 
BRANCH  12  13
ATOM     13  N   TRP A   1      -8.980  -1.751  26.047  0.00  0.00    -0.239 NA
ATOM     14  H   TRP A   1      -8.587  -1.417  26.950  0.00  0.00    +0.142 HD
ENDBRANCH  12  13
BRANCH  12  15
ATOM     15  C   TRP A   1      -9.969  -3.982  25.935  0.00  0.00    +0.224 C 
ATOM     16  O   TRP A   1     -10.628  -3.766  26.963  0.00  0.00    -0.287 OA
ENDBRANCH  12  15
ENDBRANCH  11  12
ENDBRANCH   1  11
TORSDOF 4
REMARK  Name = ../refined-set-2016/3sm2/3sm2_pocket.pdb
REMARK  227 active torsions:
REMARK  status: ('A' for Active; 'I' for Inactive)
REMARK    1  A    between atoms: _2  and  _3
REMARK    2  A    between atoms: _8  and  _10
REMARK    3  A    between atoms: _10  and  _11
REMARK    4  A    between atoms: _10  and  _13
REMARK    5  A    between atoms: _13  and  _14
REMARK    6  A    between atoms: _17  and  _19
REMARK    7  A    between atoms: _19  and  _20
REMARK    8  A    between atoms: _19  and  _22
REMARK    9  A    between atoms: _25  and  _27
REMARK   10  A    between atoms: _27  and  _28
REMARK   11  A    between atoms: _27  and  _30
REMARK   12  A    between atoms: _30  and  _31
REMARK   13  A    between atoms: _34  and  _36
REMARK   14  A    between atoms: _36  and  _37
REMARK   15  A    between atoms: _36  and  _39
REMARK   16  A    between atoms: _39  and  _40
REMARK   17  A    between atoms: _43  and  _45
REMARK   18  A    between atoms: _45  and  _46
REMARK   19  A    between atoms: _48  and  _50
REMARK   20  A    between atoms: _50  and  _51
REMARK   21  A    between atoms: _54  and  _56
REMARK   22  A    between atoms: _56  and  _57
REMARK   23  A    between atoms: _56  and  _59
REMARK   24  A    between atoms: _59  and  _60
REMARK   25  A    between atoms: _60  and  _61
REMARK   26  A    between atoms: _66  and  _68
REMARK   27  A    between atoms: _68  and  _69
REMARK   28  A    between atoms: _68  and  _71
REMARK   29  A    between atoms: _71  and  _72
REMARK   30  A    between atoms: _77  and  _79
REMARK   31  A    between atoms: _79  and  _80
REMARK   32  A    between atoms: _79  and  _82
REMARK   33  A    between atoms: _82  and  _83
REMARK   34  A    between atoms: _85  and  _87
REMARK   35  A    between atoms: _87  and  _88
REMARK   36  A    between atoms: _87  and  _90
REMARK   37  A    between atoms: _93  and  _95
REMARK   38  A    between atoms: _95  and  _96
REMARK   39  A    between atoms: _95  and  _98
REMARK   40  A    between atoms: _98  and  _99
REMARK   41  A    between atoms: _102  and  _104
REMARK   42  A    between atoms: _104  and  _105
REMARK   43  A    between atoms: _104  and  _107
REMARK   44  A    between atoms: _107  and  _108
REMARK   45  A    between atoms: _118  and  _120
REMARK   46  A    between atoms: _120  and  _121
REMARK   47  A    between atoms: _120  and  _123
REMARK   48  A    between atoms: _126  and  _128
REMARK   49  A    between atoms: _128  and  _129
REMARK   50  A    between atoms: _128  and  _131
REMARK   51  A    between atoms: _131  and  _132
REMARK   52  A    between atoms: _132  and  _133
REMARK   53  A    between atoms: _138  and  _140
REMARK   54  A    between atoms: _140  and  _141
REMARK   55  A    between atoms: _143  and  _145
REMARK   56  A    between atoms: _145  and  _146
REMARK   57  A    between atoms: _149  and  _151
REMARK   58  A    between atoms: _151  and  _152
REMARK   59  A    between atoms: _151  and  _154
REMARK   60  A    between atoms: _154  and  _155
REMARK   61  A    between atoms: _158  and  _160
REMARK   62  A    between atoms: _160  and  _161
REMARK   63  A    between atoms: _163  and  _165
REMARK   64  A    between atoms: _165  and  _166
REMARK   65  A    between atoms: _165  and  _168
REMARK   66  A    between atoms: _168  and  _169
REMARK   67  A    between atoms: _174  and  _175
REMARK   68  A    between atoms: _177  and  _179
REMARK   69  A    between atoms: _179  and  _180
REMARK   70  A    between atoms: _179  and  _182
REMARK   71  A    between atoms: _182  and  _183
REMARK   72  A    between atoms: _193  and  _195
REMARK   73  A    between atoms: _195  and  _196
REMARK   74  A    between atoms: _195  and  _198
REMARK   75  A    between atoms: _198  and  _199
REMARK   76  A    between atoms: _202  and  _204
REMARK   77  A    between atoms: _204  and  _205
REMARK   78  A    between atoms: _204  and  _207
REMARK   79  A    between atoms: _210  and  _212
REMARK   80  A    between atoms: _212  and  _213
REMARK   81  A    between atoms: _212  and  _215
REMARK   82  A    between atoms: _215  and  _216
REMARK   83  A    between atoms: _219  and  _221
REMARK   84  A    between atoms: _221  and  _222
REMARK   85  A    between atoms: _221  and  _224
REMARK   86  A    between atoms: _227  and  _228
REMARK   87  A    between atoms: _233  and  _235
REMARK   88  A    between atoms: _235  and  _236
REMARK   89  A    between atoms: _235  and  _238
REMARK   90  A    between atoms: _238  and  _239
REMARK   91  A    between atoms: _244  and  _245
REMARK   92  A    between atoms: _248  and  _249
REMARK   93  A    between atoms: _254  and  _256
REMARK   94  A    between atoms: _256  and  _257
REMARK   95  A    between atoms: _256  and  _259
REMARK   96  A    between atoms: _259  and  _260
REMARK   97  A    between atoms: _263  and  _265
REMARK   98  A    between atoms: _265  and  _266
REMARK   99  A    between atoms: _268  and  _270
REMARK  100  A    between atoms: _270  and  _271
REMARK  101  A    between atoms: _270  and  _273
REMARK  102  A    between atoms: _273  and  _274
REMARK  103  A    between atoms: _274  and  _275
REMARK  104  A    between atoms: _275  and  _276
REMARK  105  A    between atoms: _285  and  _287
REMARK  106  A    between atoms: _287  and  _288
REMARK  107  A    between atoms: _287  and  _290
REMARK  108  A    between atoms: _290  and  _291
REMARK  109  A    between atoms: _295  and  _296
REMARK  110  A    between atoms: _301  and  _303
REMARK  111  A    between atoms: _303  and  _304
REMARK  112  A    between atoms: _303  and  _306
REMARK  113  A    between atoms: _306  and  _307
REMARK  114  A    between atoms: _310  and  _312
REMARK  115  A    between atoms: _312  and  _313
REMARK  116  A    between atoms: _312  and  _315
REMARK  117  A    between atoms: _318  and  _320
REMARK  118  A    between atoms: _320  and  _321
REMARK  119  A    between atoms: _320  and  _323
REMARK  120  A    between atoms: _323  and  _324
REMARK  121  A    between atoms: _327  and  _329
REMARK  122  A    between atoms: _329  and  _330
REMARK  123  A    between atoms: _329  and  _332
REMARK  124  A    between atoms: _332  and  _333
REMARK  125  A    between atoms: _336  and  _338
REMARK  126  A    between atoms: _338  and  _339
REMARK  127  A    between atoms: _341  and  _343
REMARK  128  A    between atoms: _343  and  _344
REMARK  129  A    between atoms: _347  and  _349
REMARK  130  A    between atoms: _349  and  _350
REMARK  131  A    between atoms: _349  and  _352
REMARK  132  A    between atoms: _352  and  _353
REMARK  133  A    between atoms: _353  and  _354
REMARK  134  A    between atoms: _359  and  _361
REMARK  135  A    between atoms: _361  and  _362
REMARK  136  A    between atoms: _361  and  _364
REMARK  137  A    between atoms: _364  and  _365
REMARK  138  A    between atoms: _370  and  _372
REMARK  139  A    between atoms: _372  and  _373
REMARK  140  A    between atoms: _372  and  _375
REMARK  141  A    between atoms: _375  and  _376
REMARK  142  A    between atoms: _378  and  _380
REMARK  143  A    between atoms: _380  and  _381
REMARK  144  A    between atoms: _380  and  _383
REMARK  145  A    between atoms: _386  and  _388
REMARK  146  A    between atoms: _388  and  _389
REMARK  147  A    between atoms: _392  and  _394
REMARK  148  A    between atoms: _394  and  _395
REMARK  149  A    between atoms: _394  and  _397
REMARK  150  A    between atoms: _397  and  _398
REMARK  151  A    between atoms: _408  and  _410
REMARK  152  A    between atoms: _410  and  _411
REMARK  153  A    between atoms: _410  and  _413
REMARK  154  A    between atoms: _416  and  _418
REMARK  155  A    between atoms: _418  and  _419
REMARK  156  A    between atoms: _418  and  _421
REMARK  157  A    between atoms: _421  and  _422
REMARK  158  A    between atoms: _422  and  _423
REMARK  159  A    between atoms: _428  and  _430
REMARK  160  A    between atoms: _430  and  _431
REMARK  161  A    between atoms: _433  and  _435
REMARK  162  A    between atoms: _435  and  _436
REMARK  163  A    between atoms: _439  and  _441
REMARK  164  A    between atoms: _441  and  _442
REMARK  165  A    between atoms: _441  and  _444
REMARK  166  A    between atoms: _444  and  _445
REMARK  167  A    between atoms: _448  and  _450
REMARK  168  A    between atoms: _450  and  _451
REMARK  169  A    between atoms: _453  and  _455
REMARK  170  A    between atoms: _455  and  _456
REMARK  171  A    between atoms: _458  and  _460
REMARK  172  A    between atoms: _460  and  _461
REMARK  173  A    between atoms: _460  and  _463
REMARK  174  A    between atoms: _463  and  _464
REMARK  175  A    between atoms: _464  and  _465
REMARK  176  A    between atoms: _465  and  _466
REMARK  177  A    between atoms: _466  and  _467
REMARK  178  A    between atoms: _471  and  _473
REMARK  179  A    between atoms: _473  and  _474
REMARK  180  A    between atoms: _473  and  _476
REMARK  181  A    between atoms: _476  and  _477
REMARK  182  A    between atoms: _482  and  _483
REMARK  183  A    between atoms: _485  and  _487
REMARK  184  A    between atoms: _487  and  _488
REMARK  185  A    between atoms: _487  and  _490
REMARK  186  A    between atoms: _490  and  _491
REMARK  187  A    between atoms: _501  and  _503
REMARK  188  A    between atoms: _503  and  _504
REMARK  189  A    between atoms: _503  and  _506
REMARK  190  A    between atoms: _506  and  _507
REMARK  191  A    between atoms: _510  and  _512
REMARK  192  A    between atoms: _512  and  _513
REMARK  193  A    between atoms: _512  and  _515
REMARK  194  A    between atoms: _518  and  _520
REMARK  195  A    between atoms: _520  and  _521
REMARK  196  A    between atoms: _520  and  _523
REMARK  197  A    between atoms: _523  and  _524
REMARK  198  A    between atoms: _527  and  _529
REMARK  199  A    between atoms: _529  and  _530
REMARK  200  A    between atoms: _529  and  _532
REMARK  201  A    between atoms: _535  and  _536
REMARK  202  A    between atoms: _541  and  _543
REMARK  203  A    between atoms: _543  and  _544
REMARK  204  A    between atoms: _543  and  _546
REMARK  205  A    between atoms: _546  and  _547
REMARK  206  A    between atoms: _552  and  _553
REMARK  207  A    between atoms: _556  and  _557
REMARK  208  A    between atoms: _562  and  _564
REMARK  209  A    between atoms: _564  and  _565
REMARK  210  A    between atoms: _564  and  _567
REMARK  211  A    between atoms: _567  and  _568
REMARK  212  A    between atoms: _571  and  _573
REMARK  213  A    between atoms: _573  and  _574
REMARK  214  A    between atoms: _573  and  _576
REMARK  215  A    between atoms: _576  and  _577
REMARK  216  A    between atoms: _580  and  _582
REMARK  217  A    between atoms: _582  and  _583
REMARK  218  A    between atoms: _585  and  _587
REMARK  219  A    between atoms: _587  and  _588
REMARK  220  A    between atoms: _587  and  _590
REMARK  221  A    between atoms: _590  and  _591
REMARK  222  A    between atoms: _591  and  _592
REMARK  223  A    between atoms: _592  and  _593
REMARK  224  A    between atoms: _602  and  _604
REMARK  225  A    between atoms: _604  and  _605
REMARK  226  A    between atoms: _604  and  _607
REMARK  227  A    between atoms: _607  and  _608
REMARK                            x       y       z     vdW  Elec       q    Type
REMARK                         _______ _______ _______ _____ _____    ______ ____
ROOT
ATOM      1  CA  LEU A   1      -8.444  -2.552  21.177  0.00  0.00    +0.133 C 
ENDROOT
BRANCH   1   2
ATOM      2  N   LEU A   1      -8.021  -3.910  20.843  0.00  0.00    -0.239 NA
ATOM      3  H   LEU A   1      -7.420  -4.080  20.012  0.00  0.00    +0.142 HD
ENDBRANCH   1   2
BRANCH   1   4
ATOM      4  C   LEU A   1      -9.848  -2.337  20.628  0.00  0.00    +0.224 C 
ATOM      5  O   LEU A   1     -10.154  -2.721  19.485  0.00  0.00    -0.287 OA
ENDBRANCH   1   4
BRANCH   1   6
ATOM      6  CB  LEU A   1      -7.493  -1.515  20.537  0.00  0.00    +0.025 C 
BRANCH   6   7
ATOM      7  CG  LEU A   1      -6.137  -1.424  21.212  0.00  0.00    +0.002 C 
ATOM      8  CD2 LEU A   1      -6.264  -0.796  22.599  0.00  0.00    +0.000 C 
ATOM      9  CD1 LEU A   1      -5.164  -0.684  20.310  0.00  0.00    +0.000 C 
ENDBRANCH   6   7
ENDBRANCH   1   6
TORSDOF 4
REMARK  Name = ../refined-set-2016/3sm2/3sm2_pocket.pdb
REMARK  227 active torsions:
REMARK  status: ('A' for Active; 'I' for Inactive)
REMARK    1  A    between atoms: _2  and  _3
REMARK    2  A    between atoms: _8  and  _10
REMARK    3  A    between atoms: _10  and  _11
REMARK    4  A    between atoms: _10  and  _13
REMARK    5  A    between atoms: _13  and  _14
REMARK    6  A    between atoms: _17  and  _19
REMARK    7  A    between atoms: _19  and  _20
REMARK    8  A    between atoms: _19  and  _22
REMARK    9  A    between atoms: _25  and  _27
REMARK   10  A    between atoms: _27  and  _28
REMARK   11  A    between atoms: _27  and  _30
REMARK   12  A    between atoms: _30  and  _31
REMARK   13  A    between atoms: _34  and  _36
REMARK   14  A    between atoms: _36  and  _37
REMARK   15  A    between atoms: _36  and  _39
REMARK   16  A    between atoms: _39  and  _40
REMARK   17  A    between atoms: _43  and  _45
REMARK   18  A    between atoms: _45  and  _46
REMARK   19  A    between atoms: _48  and  _50
REMARK   20  A    between atoms: _50  and  _51
REMARK   21  A    between atoms: _54  and  _56
REMARK   22  A    between atoms: _56  and  _57
REMARK   23  A    between atoms: _56  and  _59
REMARK   24  A    between atoms: _59  and  _60
REMARK   25  A    between atoms: _60  and  _61
REMARK   26  A    between atoms: _66  and  _68
REMARK   27  A    between atoms: _68  and  _69
REMARK   28  A    between atoms: _68  and  _71
REMARK   29  A    between atoms: _71  and  _72
REMARK   30  A    between atoms: _77  and  _79
REMARK   31  A    between atoms: _79  and  _80
REMARK   32  A    between atoms: _79  and  _82
REMARK   33  A    between atoms: _82  and  _83
REMARK   34  A    between atoms: _85  and  _87
REMARK   35  A    between atoms: _87  and  _88
REMARK   36  A    between atoms: _87  and  _90
REMARK   37  A    between atoms: _93  and  _95
REMARK   38  A    between atoms: _95  and  _96
REMARK   39  A    between atoms: _95  and  _98
REMARK   40  A    between atoms: _98  and  _99
REMARK   41  A    between atoms: _102  and  _104
REMARK   42  A    between atoms: _104  and  _105
REMARK   43  A    between atoms: _104  and  _107
REMARK   44  A    between atoms: _107  and  _108
REMARK   45  A    between atoms: _118  and  _120
REMARK   46  A    between atoms: _120  and  _121
REMARK   47  A    between atoms: _120  and  _123
REMARK   48  A    between atoms: _126  and  _128
REMARK   49  A    between atoms: _128  and  _129
REMARK   50  A    between atoms: _128  and  _131
REMARK   51  A    between atoms: _131  and  _132
REMARK   52  A    between atoms: _132  and  _133
REMARK   53  A    between atoms: _138  and  _140
REMARK   54  A    between atoms: _140  and  _141
REMARK   55  A    between atoms: _143  and  _145
REMARK   56  A    between atoms: _145  and  _146
REMARK   57  A    between atoms: _149  and  _151
REMARK   58  A    between atoms: _151  and  _152
REMARK   59  A    between atoms: _151  and  _154
REMARK   60  A    between atoms: _154  and  _155
REMARK   61  A    between atoms: _158  and  _160
REMARK   62  A    between atoms: _160  and  _161
REMARK   63  A    between atoms: _163  and  _165
REMARK   64  A    between atoms: _165  and  _166
REMARK   65  A    between atoms: _165  and  _168
REMARK   66  A    between atoms: _168  and  _169
REMARK   67  A    between atoms: _174  and  _175
REMARK   68  A    between atoms: _177  and  _179
REMARK   69  A    between atoms: _179  and  _180
REMARK   70  A    between atoms: _179  and  _182
REMARK   71  A    between atoms: _182  and  _183
REMARK   72  A    between atoms: _193  and  _195
REMARK   73  A    between atoms: _195  and  _196
REMARK   74  A    between atoms: _195  and  _198
REMARK   75  A    between atoms: _198  and  _199
REMARK   76  A    between atoms: _202  and  _204
REMARK   77  A    between atoms: _204  and  _205
REMARK   78  A    between atoms: _204  and  _207
REMARK   79  A    between atoms: _210  and  _212
REMARK   80  A    between atoms: _212  and  _213
REMARK   81  A    between atoms: _212  and  _215
REMARK   82  A    between atoms: _215  and  _216
REMARK   83  A    between atoms: _219  and  _221
REMARK   84  A    between atoms: _221  and  _222
REMARK   85  A    between atoms: _221  and  _224
REMARK   86  A    between atoms: _227  and  _228
REMARK   87  A    between atoms: _233  and  _235
REMARK   88  A    between atoms: _235  and  _236
REMARK   89  A    between atoms: _235  and  _238
REMARK   90  A    between atoms: _238  and  _239
REMARK   91  A    between atoms: _244  and  _245
REMARK   92  A    between atoms: _248  and  _249
REMARK   93  A    between atoms: _254  and  _256
REMARK   94  A    between atoms: _256  and  _257
REMARK   95  A    between atoms: _256  and  _259
REMARK   96  A    between atoms: _259  and  _260
REMARK   97  A    between atoms: _263  and  _265
REMARK   98  A    between atoms: _265  and  _266
REMARK   99  A    between atoms: _268  and  _270
REMARK  100  A    between atoms: _270  and  _271
REMARK  101  A    between atoms: _270  and  _273
REMARK  102  A    between atoms: _273  and  _274
REMARK  103  A    between atoms: _274  and  _275
REMARK  104  A    between atoms: _275  and  _276
REMARK  105  A    between atoms: _285  and  _287
REMARK  106  A    between atoms: _287  and  _288
REMARK  107  A    between atoms: _287  and  _290
REMARK  108  A    between atoms: _290  and  _291
REMARK  109  A    between atoms: _295  and  _296
REMARK  110  A    between atoms: _301  and  _303
REMARK  111  A    between atoms: _303  and  _304
REMARK  112  A    between atoms: _303  and  _306
REMARK  113  A    between atoms: _306  and  _307
REMARK  114  A    between atoms: _310  and  _312
REMARK  115  A    between atoms: _312  and  _313
REMARK  116  A    between atoms: _312  and  _315
REMARK  117  A    between atoms: _318  and  _320
REMARK  118  A    between atoms: _320  and  _321
REMARK  119  A    between atoms: _320  and  _323
REMARK  120  A    between atoms: _323  and  _324
REMARK  121  A    between atoms: _327  and  _329
REMARK  122  A    between atoms: _329  and  _330
REMARK  123  A    between atoms: _329  and  _332
REMARK  124  A    between atoms: _332  and  _333
REMARK  125  A    between atoms: _336  and  _338
REMARK  126  A    between atoms: _338  and  _339
REMARK  127  A    between atoms: _341  and  _343
REMARK  128  A    between atoms: _343  and  _344
REMARK  129  A    between atoms: _347  and  _349
REMARK  130  A    between atoms: _349  and  _350
REMARK  131  A    between atoms: _349  and  _352
REMARK  132  A    between atoms: _352  and  _353
REMARK  133  A    between atoms: _353  and  _354
REMARK  134  A    between atoms: _359  and  _361
REMARK  135  A    between atoms: _361  and  _362
REMARK  136  A    between atoms: _361  and  _364
REMARK  137  A    between atoms: _364  and  _365
REMARK  138  A    between atoms: _370  and  _372
REMARK  139  A    between atoms: _372  and  _373
REMARK  140  A    between atoms: _372  and  _375
REMARK  141  A    between atoms: _375  and  _376
REMARK  142  A    between atoms: _378  and  _380
REMARK  143  A    between atoms: _380  and  _381
REMARK  144  A    between atoms: _380  and  _383
REMARK  145  A    between atoms: _386  and  _388
REMARK  146  A    between atoms: _388  and  _389
REMARK  147  A    between atoms: _392  and  _394
REMARK  148  A    between atoms: _394  and  _395
REMARK  149  A    between atoms: _394  and  _397
REMARK  150  A    between atoms: _397  and  _398
REMARK  151  A    between atoms: _408  and  _410
REMARK  152  A    between atoms: _410  and  _411
REMARK  153  A    between atoms: _410  and  _413
REMARK  154  A    between atoms: _416  and  _418
REMARK  155  A    between atoms: _418  and  _419
REMARK  156  A    between atoms: _418  and  _421
REMARK  157  A    between atoms: _421  and  _422
REMARK  158  A    between atoms: _422  and  _423
REMARK  159  A    between atoms: _428  and  _430
REMARK  160  A    between atoms: _430  and  _431
REMARK  161  A    between atoms: _433  and  _435
REMARK  162  A    between atoms: _435  and  _436
REMARK  163  A    between atoms: _439  and  _441
REMARK  164  A    between atoms: _441  and  _442
REMARK  165  A    between atoms: _441  and  _444
REMARK  166  A    between atoms: _444  and  _445
REMARK  167  A    between atoms: _448  and  _450
REMARK  168  A    between atoms: _450  and  _451
REMARK  169  A    between atoms: _453  and  _455
REMARK  170  A    between atoms: _455  and  _456
REMARK  171  A    between atoms: _458  and  _460
REMARK  172  A    between atoms: _460  and  _461
REMARK  173  A    between atoms: _460  and  _463
REMARK  174  A    between atoms: _463  and  _464
REMARK  175  A    between atoms: _464  and  _465
REMARK  176  A    between atoms: _465  and  _466
REMARK  177  A    between atoms: _466  and  _467
REMARK  178  A    between atoms: _471  and  _473
REMARK  179  A    between atoms: _473  and  _474
REMARK  180  A    between atoms: _473  and  _476
REMARK  181  A    between atoms: _476  and  _477
REMARK  182  A    between atoms: _482  and  _483
REMARK  183  A    between atoms: _485  and  _487
REMARK  184  A    between atoms: _487  and  _488
REMARK  185  A    between atoms: _487  and  _490
REMARK  186  A    between atoms: _490  and  _491
REMARK  187  A    between atoms: _501  and  _503
REMARK  188  A    between atoms: _503  and  _504
REMARK  189  A    between atoms: _503  and  _506
REMARK  190  A    between atoms: _506  and  _507
REMARK  191  A    between atoms: _510  and  _512
REMARK  192  A    between atoms: _512  and  _513
REMARK  193  A    between atoms: _512  and  _515
REMARK  194  A    between atoms: _518  and  _520
REMARK  195  A    between atoms: _520  and  _521
REMARK  196  A    between atoms: _520  and  _523
REMARK  197  A    between atoms: _523  and  _524
REMARK  198  A    between atoms: _527  and  _529
REMARK  199  A    between atoms: _529  and  _530
REMARK  200  A    between atoms: _529  and  _532
REMARK  201  A    between atoms: _535  and  _536
REMARK  202  A    between atoms: _541  and  _543
REMARK  203  A    between atoms: _543  and  _544
REMARK  204  A    between atoms: _543  and  _546
REMARK  205  A    between atoms: _546  and  _547
REMARK  206  A    between atoms: _552  and  _553
REMARK  207  A    between atoms: _556  and  _557
REMARK  208  A    between atoms: _562  and  _564
REMARK  209  A    between atoms: _564  and  _565
REMARK  210  A    between atoms: _564  and  _567
REMARK  211  A    between atoms: _567  and  _568
REMARK  212  A    between atoms: _571  and  _573
REMARK  213  A    between atoms: _573  and  _574
REMARK  214  A    between atoms: _573  and  _576
REMARK  215  A    between atoms: _576  and  _577
REMARK  216  A    between atoms: _580  and  _582
REMARK  217  A    between atoms: _582  and  _583
REMARK  218  A    between atoms: _585  and  _587
REMARK  219  A    between atoms: _587  and  _588
REMARK  220  A    between atoms: _587  and  _590
REMARK  221  A    between atoms: _590  and  _591
REMARK  222  A    between atoms: _591  and  _592
REMARK  223  A    between atoms: _592  and  _593
REMARK  224  A    between atoms: _602  and  _604
REMARK  225  A    between atoms: _604  and  _605
REMARK  226  A    between atoms: _604  and  _607
REMARK  227  A    between atoms: _607  and  _608
REMARK                            x       y       z     vdW  Elec       q    Type
REMARK                         _______ _______ _______ _____ _____    ______ ____
ROOT
ATOM      1  CA  VAL A   1     -11.876   1.519  18.530  0.00  0.00    +0.133 C 
ENDROOT
BRANCH   1   2
ATOM      2  CB  VAL A   1     -10.597   1.560  17.658  0.00  0.00    +0.023 C 
ATOM      3  CG2 VAL A   1      -9.392   1.097  18.453  0.00  0.00    +0.002 C 
ATOM      4  CG1 VAL A   1     -10.324   2.987  17.134  0.00  0.00    +0.002 C 
ENDBRANCH   1   2
BRANCH   1   5
ATOM      5  N   VAL A   1     -12.058   0.226  19.196  0.00  0.00    -0.239 NA
ATOM      6  H   VAL A   1     -12.270  -0.608  18.613  0.00  0.00    +0.142 HD
ENDBRANCH   1   5
BRANCH   1   7
ATOM      7  C   VAL A   1     -13.139   1.787  17.722  0.00  0.00    +0.224 C 
ATOM      8  O   VAL A   1     -13.201   1.481  16.525  0.00  0.00    -0.287 OA
ENDBRANCH   1   7
TORSDOF 3
REMARK  Name = ../refined-set-2016/3sm2/3sm2_pocket.pdb
REMARK  227 active torsions:
REMARK  status: ('A' for Active; 'I' for Inactive)
REMARK    1  A    between atoms: _2  and  _3
REMARK    2  A    between atoms: _8  and  _10
REMARK    3  A    between atoms: _10  and  _11
REMARK    4  A    between atoms: _10  and  _13
REMARK    5  A    between atoms: _13  and  _14
REMARK    6  A    between atoms: _17  and  _19
REMARK    7  A    between atoms: _19  and  _20
REMARK    8  A    between atoms: _19  and  _22
REMARK    9  A    between atoms: _25  and  _27
REMARK   10  A    between atoms: _27  and  _28
REMARK   11  A    between atoms: _27  and  _30
REMARK   12  A    between atoms: _30  and  _31
REMARK   13  A    between atoms: _34  and  _36
REMARK   14  A    between atoms: _36  and  _37
REMARK   15  A    between atoms: _36  and  _39
REMARK   16  A    between atoms: _39  and  _40
REMARK   17  A    between atoms: _43  and  _45
REMARK   18  A    between atoms: _45  and  _46
REMARK   19  A    between atoms: _48  and  _50
REMARK   20  A    between atoms: _50  and  _51
REMARK   21  A    between atoms: _54  and  _56
REMARK   22  A    between atoms: _56  and  _57
REMARK   23  A    between atoms: _56  and  _59
REMARK   24  A    between atoms: _59  and  _60
REMARK   25  A    between atoms: _60  and  _61
REMARK   26  A    between atoms: _66  and  _68
REMARK   27  A    between atoms: _68  and  _69
REMARK   28  A    between atoms: _68  and  _71
REMARK   29  A    between atoms: _71  and  _72
REMARK   30  A    between atoms: _77  and  _79
REMARK   31  A    between atoms: _79  and  _80
REMARK   32  A    between atoms: _79  and  _82
REMARK   33  A    between atoms: _82  and  _83
REMARK   34  A    between atoms: _85  and  _87
REMARK   35  A    between atoms: _87  and  _88
REMARK   36  A    between atoms: _87  and  _90
REMARK   37  A    between atoms: _93  and  _95
REMARK   38  A    between atoms: _95  and  _96
REMARK   39  A    between atoms: _95  and  _98
REMARK   40  A    between atoms: _98  and  _99
REMARK   41  A    between atoms: _102  and  _104
REMARK   42  A    between atoms: _104  and  _105
REMARK   43  A    between atoms: _104  and  _107
REMARK   44  A    between atoms: _107  and  _108
REMARK   45  A    between atoms: _118  and  _120
REMARK   46  A    between atoms: _120  and  _121
REMARK   47  A    between atoms: _120  and  _123
REMARK   48  A    between atoms: _126  and  _128
REMARK   49  A    between atoms: _128  and  _129
REMARK   50  A    between atoms: _128  and  _131
REMARK   51  A    between atoms: _131  and  _132
REMARK   52  A    between atoms: _132  and  _133
REMARK   53  A    between atoms: _138  and  _140
REMARK   54  A    between atoms: _140  and  _141
REMARK   55  A    between atoms: _143  and  _145
REMARK   56  A    between atoms: _145  and  _146
REMARK   57  A    between atoms: _149  and  _151
REMARK   58  A    between atoms: _151  and  _152
REMARK   59  A    between atoms: _151  and  _154
REMARK   60  A    between atoms: _154  and  _155
REMARK   61  A    between atoms: _158  and  _160
REMARK   62  A    between atoms: _160  and  _161
REMARK   63  A    between atoms: _163  and  _165
REMARK   64  A    between atoms: _165  and  _166
REMARK   65  A    between atoms: _165  and  _168
REMARK   66  A    between atoms: _168  and  _169
REMARK   67  A    between atoms: _174  and  _175
REMARK   68  A    between atoms: _177  and  _179
REMARK   69  A    between atoms: _179  and  _180
REMARK   70  A    between atoms: _179  and  _182
REMARK   71  A    between atoms: _182  and  _183
REMARK   72  A    between atoms: _193  and  _195
REMARK   73  A    between atoms: _195  and  _196
REMARK   74  A    between atoms: _195  and  _198
REMARK   75  A    between atoms: _198  and  _199
REMARK   76  A    between atoms: _202  and  _204
REMARK   77  A    between atoms: _204  and  _205
REMARK   78  A    between atoms: _204  and  _207
REMARK   79  A    between atoms: _210  and  _212
REMARK   80  A    between atoms: _212  and  _213
REMARK   81  A    between atoms: _212  and  _215
REMARK   82  A    between atoms: _215  and  _216
REMARK   83  A    between atoms: _219  and  _221
REMARK   84  A    between atoms: _221  and  _222
REMARK   85  A    between atoms: _221  and  _224
REMARK   86  A    between atoms: _227  and  _228
REMARK   87  A    between atoms: _233  and  _235
REMARK   88  A    between atoms: _235  and  _236
REMARK   89  A    between atoms: _235  and  _238
REMARK   90  A    between atoms: _238  and  _239
REMARK   91  A    between atoms: _244  and  _245
REMARK   92  A    between atoms: _248  and  _249
REMARK   93  A    between atoms: _254  and  _256
REMARK   94  A    between atoms: _256  and  _257
REMARK   95  A    between atoms: _256  and  _259
REMARK   96  A    between atoms: _259  and  _260
REMARK   97  A    between atoms: _263  and  _265
REMARK   98  A    between atoms: _265  and  _266
REMARK   99  A    between atoms: _268  and  _270
REMARK  100  A    between atoms: _270  and  _271
REMARK  101  A    between atoms: _270  and  _273
REMARK  102  A    between atoms: _273  and  _274
REMARK  103  A    between atoms: _274  and  _275
REMARK  104  A    between atoms: _275  and  _276
REMARK  105  A    between atoms: _285  and  _287
REMARK  106  A    between atoms: _287  and  _288
REMARK  107  A    between atoms: _287  and  _290
REMARK  108  A    between atoms: _290  and  _291
REMARK  109  A    between atoms: _295  and  _296
REMARK  110  A    between atoms: _301  and  _303
REMARK  111  A    between atoms: _303  and  _304
REMARK  112  A    between atoms: _303  and  _306
REMARK  113  A    between atoms: _306  and  _307
REMARK  114  A    between atoms: _310  and  _312
REMARK  115  A    between atoms: _312  and  _313
REMARK  116  A    between atoms: _312  and  _315
REMARK  117  A    between atoms: _318  and  _320
REMARK  118  A    between atoms: _320  and  _321
REMARK  119  A    between atoms: _320  and  _323
REMARK  120  A    between atoms: _323  and  _324
REMARK  121  A    between atoms: _327  and  _329
REMARK  122  A    between atoms: _329  and  _330
REMARK  123  A    between atoms: _329  and  _332
REMARK  124  A    between atoms: _332  and  _333
REMARK  125  A    between atoms: _336  and  _338
REMARK  126  A    between atoms: _338  and  _339
REMARK  127  A    between atoms: _341  and  _343
REMARK  128  A    between atoms: _343  and  _344
REMARK  129  A    between atoms: _347  and  _349
REMARK  130  A    between atoms: _349  and  _350
REMARK  131  A    between atoms: _349  and  _352
REMARK  132  A    between atoms: _352  and  _353
REMARK  133  A    between atoms: _353  and  _354
REMARK  134  A    between atoms: _359  and  _361
REMARK  135  A    between atoms: _361  and  _362
REMARK  136  A    between atoms: _361  and  _364
REMARK  137  A    between atoms: _364  and  _365
REMARK  138  A    between atoms: _370  and  _372
REMARK  139  A    between atoms: _372  and  _373
REMARK  140  A    between atoms: _372  and  _375
REMARK  141  A    between atoms: _375  and  _376
REMARK  142  A    between atoms: _378  and  _380
REMARK  143  A    between atoms: _380  and  _381
REMARK  144  A    between atoms: _380  and  _383
REMARK  145  A    between atoms: _386  and  _388
REMARK  146  A    between atoms: _388  and  _389
REMARK  147  A    between atoms: _392  and  _394
REMARK  148  A    between atoms: _394  and  _395
REMARK  149  A    between atoms: _394  and  _397
REMARK  150  A    between atoms: _397  and  _398
REMARK  151  A    between atoms: _408  and  _410
REMARK  152  A    between atoms: _410  and  _411
REMARK  153  A    between atoms: _410  and  _413
REMARK  154  A    between atoms: _416  and  _418
REMARK  155  A    between atoms: _418  and  _419
REMARK  156  A    between atoms: _418  and  _421
REMARK  157  A    between atoms: _421  and  _422
REMARK  158  A    between atoms: _422  and  _423
REMARK  159  A    between atoms: _428  and  _430
REMARK  160  A    between atoms: _430  and  _431
REMARK  161  A    between atoms: _433  and  _435
REMARK  162  A    between atoms: _435  and  _436
REMARK  163  A    between atoms: _439  and  _441
REMARK  164  A    between atoms: _441  and  _442
REMARK  165  A    between atoms: _441  and  _444
REMARK  166  A    between atoms: _444  and  _445
REMARK  167  A    between atoms: _448  and  _450
REMARK  168  A    between atoms: _450  and  _451
REMARK  169  A    between atoms: _453  and  _455
REMARK  170  A    between atoms: _455  and  _456
REMARK  171  A    between atoms: _458  and  _460
REMARK  172  A    between atoms: _460  and  _461
REMARK  173  A    between atoms: _460  and  _463
REMARK  174  A    between atoms: _463  and  _464
REMARK  175  A    between atoms: _464  and  _465
REMARK  176  A    between atoms: _465  and  _466
REMARK  177  A    between atoms: _466  and  _467
REMARK  178  A    between atoms: _471  and  _473
REMARK  179  A    between atoms: _473  and  _474
REMARK  180  A    between atoms: _473  and  _476
REMARK  181  A    between atoms: _476  and  _477
REMARK  182  A    between atoms: _482  and  _483
REMARK  183  A    between atoms: _485  and  _487
REMARK  184  A    between atoms: _487  and  _488
REMARK  185  A    between atoms: _487  and  _490
REMARK  186  A    between atoms: _490  and  _491
REMARK  187  A    between atoms: _501  and  _503
REMARK  188  A    between atoms: _503  and  _504
REMARK  189  A    between atoms: _503  and  _506
REMARK  190  A    between atoms: _506  and  _507
REMARK  191  A    between atoms: _510  and  _512
REMARK  192  A    between atoms: _512  and  _513
REMARK  193  A    between atoms: _512  and  _515
REMARK  194  A    between atoms: _518  and  _520
REMARK  195  A    between atoms: _520  and  _521
REMARK  196  A    between atoms: _520  and  _523
REMARK  197  A    between atoms: _523  and  _524
REMARK  198  A    between atoms: _527  and  _529
REMARK  199  A    between atoms: _529  and  _530
REMARK  200  A    between atoms: _529  and  _532
REMARK  201  A    between atoms: _535  and  _536
REMARK  202  A    between atoms: _541  and  _543
REMARK  203  A    between atoms: _543  and  _544
REMARK  204  A    between atoms: _543  and  _546
REMARK  205  A    between atoms: _546  and  _547
REMARK  206  A    between atoms: _552  and  _553
REMARK  207  A    between atoms: _556  and  _557
REMARK  208  A    between atoms: _562  and  _564
REMARK  209  A    between atoms: _564  and  _565
REMARK  210  A    between atoms: _564  and  _567
REMARK  211  A    between atoms: _567  and  _568
REMARK  212  A    between atoms: _571  and  _573
REMARK  213  A    between atoms: _573  and  _574
REMARK  214  A    between atoms: _573  and  _576
REMARK  215  A    between atoms: _576  and  _577
REMARK  216  A    between atoms: _580  and  _582
REMARK  217  A    between atoms: _582  and  _583
REMARK  218  A    between atoms: _585  and  _587
REMARK  219  A    between atoms: _587  and  _588
REMARK  220  A    between atoms: _587  and  _590
REMARK  221  A    between atoms: _590  and  _591
REMARK  222  A    between atoms: _591  and  _592
REMARK  223  A    between atoms: _592  and  _593
REMARK  224  A    between atoms: _602  and  _604
REMARK  225  A    between atoms: _604  and  _605
REMARK  226  A    between atoms: _604  and  _607
REMARK  227  A    between atoms: _607  and  _608
REMARK                            x       y       z     vdW  Elec       q    Type
REMARK                         _______ _______ _______ _____ _____    ______ ____
ROOT
ATOM      1  CA  TYR A   4     -13.736  -1.641  10.330  0.00  0.00    +0.153 C 
ENDROOT
BRANCH   1   2
ATOM      2  C   TYR A   4     -12.681  -2.332  11.201  0.00  0.00    +0.244 C 
ATOM      3  N   PRO A   5     -12.908  -3.609  11.582  0.00  0.00    -0.272 N 
ATOM      4  CA  PRO A   5     -11.921  -4.266  12.442  0.00  0.00    +0.152 C 
ATOM      5  CB  PRO A   5     -12.544  -5.656  12.711  0.00  0.00    +0.031 C 
ATOM      6  CG  PRO A   5     -13.971  -5.503  12.333  0.00  0.00    +0.024 C 
ATOM      7  CD  PRO A   5     -13.982  -4.559  11.227  0.00  0.00    +0.094 C 
ATOM      8  O   TYR A   4     -11.680  -1.685  11.530  0.00  0.00    -0.273 OA
BRANCH   4   9
ATOM      9  C   PRO A   5     -10.594  -4.446  11.722  0.00  0.00    +0.241 C 
ATOM     10  N   LEU A   6      -9.498  -4.379  12.481  0.00  0.00    -0.298 N 
ATOM     11  H   LEU A   6      -9.588  -4.292  13.513  0.00  0.00    +0.150 HD
ATOM     12  O   PRO A   5     -10.568  -4.644  10.502  0.00  0.00    -0.273 OA
BRANCH  10  13
ATOM     13  CA  LEU A   6      -8.169  -4.428  11.867  0.00  0.00    +0.137 C 
BRANCH  13  14
ATOM     14  C   LEU A   6      -7.381  -5.634  12.393  0.00  0.00    +0.227 C 
ATOM     15  O   LEU A   6      -7.293  -5.832  13.592  0.00  0.00    -0.286 OA
ENDBRANCH  13  14
BRANCH  13  16
ATOM     16  CB  LEU A   6      -7.389  -3.138  12.160  0.00  0.00    +0.028 C 
BRANCH  16  17
ATOM     17  CG  LEU A   6      -7.978  -1.769  11.754  0.00  0.00    +0.002 C 
ATOM     18  CD2 LEU A   6      -6.960  -0.694  12.189  0.00  0.00    +0.000 C 
ATOM     19  CD1 LEU A   6      -8.290  -1.697  10.239  0.00  0.00    +0.000 C 
ENDBRANCH  16  17
ENDBRANCH  13  16
ENDBRANCH  10  13
ENDBRANCH   4   9
ENDBRANCH   1   2
BRANCH   1  21
ATOM     20  C   PRO A   3     -14.352   0.706   9.864  0.00  0.00    +0.241 C 
ATOM     21  N   TYR A   4     -13.418  -0.193  10.204  0.00  0.00    -0.297 N 
ATOM     22  H   TYR A   4     -12.446   0.130  10.384  0.00  0.00    +0.150 HD
ATOM     23  O   PRO A   3     -15.473   0.372   9.542  0.00  0.00    -0.273 OA
BRANCH  20  30
ATOM     24  C   CYS A   2     -13.328   2.425  12.236  0.00  0.00    +0.245 C 
ATOM     25  O   CYS A   2     -14.287   1.770  12.650  0.00  0.00    -0.273 OA
ATOM     26  N   PRO A   3     -13.109   2.667  10.919  0.00  0.00    -0.272 N 
ATOM     27  CD  PRO A   3     -12.063   3.581  10.412  0.00  0.00    +0.094 C 
ATOM     28  CG  PRO A   3     -11.961   3.239   8.961  0.00  0.00    +0.024 C 
ATOM     29  CB  PRO A   3     -13.275   2.616   8.558  0.00  0.00    +0.031 C 
ATOM     30  CA  PRO A   3     -13.997   2.208   9.853  0.00  0.00    +0.152 C 
BRANCH  24  31
ATOM     31  CA  CYS A   2     -12.323   3.017  13.235  0.00  0.00    +0.161 C 
BRANCH  31  33
ATOM     32  C   ASP A   1     -13.435   4.895  14.270  0.00  0.00    +0.239 C 
ATOM     33  N   CYS A   2     -13.017   3.638  14.338  0.00  0.00    -0.296 N 
ATOM     34  H   CYS A   2     -13.193   3.089  15.203  0.00  0.00    +0.150 HD
ATOM     35  O   ASP A   1     -13.390   5.557  13.234  0.00  0.00    -0.274 OA
BRANCH  32  36
ATOM     36  CA  ASP A   1     -13.954   5.496  15.558  0.00  0.00    +0.156 C 
BRANCH  36  37
ATOM     37  N   ASP A   1     -14.228   4.476  16.591  0.00  0.00    -0.238 NA
ATOM     38  H   ASP A   1     -13.572   4.393  17.394  0.00  0.00    +0.142 HD
ENDBRANCH  36  37
BRANCH  36  39
ATOM     39  CB  ASP A   1     -12.946   6.546  16.062  0.00  0.00    +0.140 C 
BRANCH  39  40
ATOM     40  CG  ASP A   1     -13.466   7.318  17.259  0.00  0.00    +0.367 C 
ATOM     41  OD2 ASP A   1     -12.722   7.502  18.242  0.00  0.00    -0.246 OA
ATOM     42  OD1 ASP A   1     -14.642   7.732  17.218  0.00  0.00    -0.246 OA
ENDBRANCH  39  40
ENDBRANCH  36  39
ENDBRANCH  32  36
ENDBRANCH  31  33
BRANCH  31  43
ATOM     43  CB  CYS A   2     -11.397   1.942  13.783  0.00  0.00    +0.098 C 
ATOM     44  SG  CYS A   2     -10.469   1.184  12.423  0.00  0.00    -0.080 S 
ENDBRANCH  31  43
ENDBRANCH  24  31
ENDBRANCH  20  30
ENDBRANCH   1  21
BRANCH   1  45
ATOM     45  CB  TYR A   4     -13.830  -2.364   8.972  0.00  0.00    +0.055 C 
BRANCH  45  46
ATOM     46  CG  TYR A   4     -13.199  -1.596   7.864  0.00  0.00    -0.020 A 
ATOM     47  CD2 TYR A   4     -11.854  -1.267   7.918  0.00  0.00    -0.001 A 
ATOM     48  CE2 TYR A   4     -11.276  -0.524   6.938  0.00  0.00    +0.036 A 
ATOM     49  CZ  TYR A   4     -12.033  -0.088   5.874  0.00  0.00    +0.134 A 
ATOM     50  CE1 TYR A   4     -13.383  -0.391   5.786  0.00  0.00    +0.036 A 
ATOM     51  CD1 TYR A   4     -13.959  -1.145   6.792  0.00  0.00    -0.001 A 
BRANCH  49  52
ATOM     52  OH  TYR A   4     -11.411   0.645   4.901  0.00  0.00    -0.506 OA
ATOM     53  HH  TYR A   4     -12.069   0.890   4.203  0.00  0.00    +0.292 HD
ENDBRANCH  49  52
ENDBRANCH  45  46
ENDBRANCH   1  45
TORSDOF 18
REMARK  Name = ../refined-set-2016/3sm2/3sm2_pocket.pdb
REMARK  227 active torsions:
REMARK  status: ('A' for Active; 'I' for Inactive)
REMARK    1  A    between atoms: _2  and  _3
REMARK    2  A    between atoms: _8  and  _10
REMARK    3  A    between atoms: _10  and  _11
REMARK    4  A    between atoms: _10  and  _13
REMARK    5  A    between atoms: _13  and  _14
REMARK    6  A    between atoms: _17  and  _19
REMARK    7  A    between atoms: _19  and  _20
REMARK    8  A    between atoms: _19  and  _22
REMARK    9  A    between atoms: _25  and  _27
REMARK   10  A    between atoms: _27  and  _28
REMARK   11  A    between atoms: _27  and  _30
REMARK   12  A    between atoms: _30  and  _31
REMARK   13  A    between atoms: _34  and  _36
REMARK   14  A    between atoms: _36  and  _37
REMARK   15  A    between atoms: _36  and  _39
REMARK   16  A    between atoms: _39  and  _40
REMARK   17  A    between atoms: _43  and  _45
REMARK   18  A    between atoms: _45  and  _46
REMARK   19  A    between atoms: _48  and  _50
REMARK   20  A    between atoms: _50  and  _51
REMARK   21  A    between atoms: _54  and  _56
REMARK   22  A    between atoms: _56  and  _57
REMARK   23  A    between atoms: _56  and  _59
REMARK   24  A    between atoms: _59  and  _60
REMARK   25  A    between atoms: _60  and  _61
REMARK   26  A    between atoms: _66  and  _68
REMARK   27  A    between atoms: _68  and  _69
REMARK   28  A    between atoms: _68  and  _71
REMARK   29  A    between atoms: _71  and  _72
REMARK   30  A    between atoms: _77  and  _79
REMARK   31  A    between atoms: _79  and  _80
REMARK   32  A    between atoms: _79  and  _82
REMARK   33  A    between atoms: _82  and  _83
REMARK   34  A    between atoms: _85  and  _87
REMARK   35  A    between atoms: _87  and  _88
REMARK   36  A    between atoms: _87  and  _90
REMARK   37  A    between atoms: _93  and  _95
REMARK   38  A    between atoms: _95  and  _96
REMARK   39  A    between atoms: _95  and  _98
REMARK   40  A    between atoms: _98  and  _99
REMARK   41  A    between atoms: _102  and  _104
REMARK   42  A    between atoms: _104  and  _105
REMARK   43  A    between atoms: _104  and  _107
REMARK   44  A    between atoms: _107  and  _108
REMARK   45  A    between atoms: _118  and  _120
REMARK   46  A    between atoms: _120  and  _121
REMARK   47  A    between atoms: _120  and  _123
REMARK   48  A    between atoms: _126  and  _128
REMARK   49  A    between atoms: _128  and  _129
REMARK   50  A    between atoms: _128  and  _131
REMARK   51  A    between atoms: _131  and  _132
REMARK   52  A    between atoms: _132  and  _133
REMARK   53  A    between atoms: _138  and  _140
REMARK   54  A    between atoms: _140  and  _141
REMARK   55  A    between atoms: _143  and  _145
REMARK   56  A    between atoms: _145  and  _146
REMARK   57  A    between atoms: _149  and  _151
REMARK   58  A    between atoms: _151  and  _152
REMARK   59  A    between atoms: _151  and  _154
REMARK   60  A    between atoms: _154  and  _155
REMARK   61  A    between atoms: _158  and  _160
REMARK   62  A    between atoms: _160  and  _161
REMARK   63  A    between atoms: _163  and  _165
REMARK   64  A    between atoms: _165  and  _166
REMARK   65  A    between atoms: _165  and  _168
REMARK   66  A    between atoms: _168  and  _169
REMARK   67  A    between atoms: _174  and  _175
REMARK   68  A    between atoms: _177  and  _179
REMARK   69  A    between atoms: _179  and  _180
REMARK   70  A    between atoms: _179  and  _182
REMARK   71  A    between atoms: _182  and  _183
REMARK   72  A    between atoms: _193  and  _195
REMARK   73  A    between atoms: _195  and  _196
REMARK   74  A    between atoms: _195  and  _198
REMARK   75  A    between atoms: _198  and  _199
REMARK   76  A    between atoms: _202  and  _204
REMARK   77  A    between atoms: _204  and  _205
REMARK   78  A    between atoms: _204  and  _207
REMARK   79  A    between atoms: _210  and  _212
REMARK   80  A    between atoms: _212  and  _213
REMARK   81  A    between atoms: _212  and  _215
REMARK   82  A    between atoms: _215  and  _216
REMARK   83  A    between atoms: _219  and  _221
REMARK   84  A    between atoms: _221  and  _222
REMARK   85  A    between atoms: _221  and  _224
REMARK   86  A    between atoms: _227  and  _228
REMARK   87  A    between atoms: _233  and  _235
REMARK   88  A    between atoms: _235  and  _236
REMARK   89  A    between atoms: _235  and  _238
REMARK   90  A    between atoms: _238  and  _239
REMARK   91  A    between atoms: _244  and  _245
REMARK   92  A    between atoms: _248  and  _249
REMARK   93  A    between atoms: _254  and  _256
REMARK   94  A    between atoms: _256  and  _257
REMARK   95  A    between atoms: _256  and  _259
REMARK   96  A    between atoms: _259  and  _260
REMARK   97  A    between atoms: _263  and  _265
REMARK   98  A    between atoms: _265  and  _266
REMARK   99  A    between atoms: _268  and  _270
REMARK  100  A    between atoms: _270  and  _271
REMARK  101  A    between atoms: _270  and  _273
REMARK  102  A    between atoms: _273  and  _274
REMARK  103  A    between atoms: _274  and  _275
REMARK  104  A    between atoms: _275  and  _276
REMARK  105  A    between atoms: _285  and  _287
REMARK  106  A    between atoms: _287  and  _288
REMARK  107  A    between atoms: _287  and  _290
REMARK  108  A    between atoms: _290  and  _291
REMARK  109  A    between atoms: _295  and  _296
REMARK  110  A    between atoms: _301  and  _303
REMARK  111  A    between atoms: _303  and  _304
REMARK  112  A    between atoms: _303  and  _306
REMARK  113  A    between atoms: _306  and  _307
REMARK  114  A    between atoms: _310  and  _312
REMARK  115  A    between atoms: _312  and  _313
REMARK  116  A    between atoms: _312  and  _315
REMARK  117  A    between atoms: _318  and  _320
REMARK  118  A    between atoms: _320  and  _321
REMARK  119  A    between atoms: _320  and  _323
REMARK  120  A    between atoms: _323  and  _324
REMARK  121  A    between atoms: _327  and  _329
REMARK  122  A    between atoms: _329  and  _330
REMARK  123  A    between atoms: _329  and  _332
REMARK  124  A    between atoms: _332  and  _333
REMARK  125  A    between atoms: _336  and  _338
REMARK  126  A    between atoms: _338  and  _339
REMARK  127  A    between atoms: _341  and  _343
REMARK  128  A    between atoms: _343  and  _344
REMARK  129  A    between atoms: _347  and  _349
REMARK  130  A    between atoms: _349  and  _350
REMARK  131  A    between atoms: _349  and  _352
REMARK  132  A    between atoms: _352  and  _353
REMARK  133  A    between atoms: _353  and  _354
REMARK  134  A    between atoms: _359  and  _361
REMARK  135  A    between atoms: _361  and  _362
REMARK  136  A    between atoms: _361  and  _364
REMARK  137  A    between atoms: _364  and  _365
REMARK  138  A    between atoms: _370  and  _372
REMARK  139  A    between atoms: _372  and  _373
REMARK  140  A    between atoms: _372  and  _375
REMARK  141  A    between atoms: _375  and  _376
REMARK  142  A    between atoms: _378  and  _380
REMARK  143  A    between atoms: _380  and  _381
REMARK  144  A    between atoms: _380  and  _383
REMARK  145  A    between atoms: _386  and  _388
REMARK  146  A    between atoms: _388  and  _389
REMARK  147  A    between atoms: _392  and  _394
REMARK  148  A    between atoms: _394  and  _395
REMARK  149  A    between atoms: _394  and  _397
REMARK  150  A    between atoms: _397  and  _398
REMARK  151  A    between atoms: _408  and  _410
REMARK  152  A    between atoms: _410  and  _411
REMARK  153  A    between atoms: _410  and  _413
REMARK  154  A    between atoms: _416  and  _418
REMARK  155  A    between atoms: _418  and  _419
REMARK  156  A    between atoms: _418  and  _421
REMARK  157  A    between atoms: _421  and  _422
REMARK  158  A    between atoms: _422  and  _423
REMARK  159  A    between atoms: _428  and  _430
REMARK  160  A    between atoms: _430  and  _431
REMARK  161  A    between atoms: _433  and  _435
REMARK  162  A    between atoms: _435  and  _436
REMARK  163  A    between atoms: _439  and  _441
REMARK  164  A    between atoms: _441  and  _442
REMARK  165  A    between atoms: _441  and  _444
REMARK  166  A    between atoms: _444  and  _445
REMARK  167  A    between atoms: _448  and  _450
REMARK  168  A    between atoms: _450  and  _451
REMARK  169  A    between atoms: _453  and  _455
REMARK  170  A    between atoms: _455  and  _456
REMARK  171  A    between atoms: _458  and  _460
REMARK  172  A    between atoms: _460  and  _461
REMARK  173  A    between atoms: _460  and  _463
REMARK  174  A    between atoms: _463  and  _464
REMARK  175  A    between atoms: _464  and  _465
REMARK  176  A    between atoms: _465  and  _466
REMARK  177  A    between atoms: _466  and  _467
REMARK  178  A    between atoms: _471  and  _473
REMARK  179  A    between atoms: _473  and  _474
REMARK  180  A    between atoms: _473  and  _476
REMARK  181  A    between atoms: _476  and  _477
REMARK  182  A    between atoms: _482  and  _483
REMARK  183  A    between atoms: _485  and  _487
REMARK  184  A    between atoms: _487  and  _488
REMARK  185  A    between atoms: _487  and  _490
REMARK  186  A    between atoms: _490  and  _491
REMARK  187  A    between atoms: _501  and  _503
REMARK  188  A    between atoms: _503  and  _504
REMARK  189  A    between atoms: _503  and  _506
REMARK  190  A    between atoms: _506  and  _507
REMARK  191  A    between atoms: _510  and  _512
REMARK  192  A    between atoms: _512  and  _513
REMARK  193  A    between atoms: _512  and  _515
REMARK  194  A    between atoms: _518  and  _520
REMARK  195  A    between atoms: _520  and  _521
REMARK  196  A    between atoms: _520  and  _523
REMARK  197  A    between atoms: _523  and  _524
REMARK  198  A    between atoms: _527  and  _529
REMARK  199  A    between atoms: _529  and  _530
REMARK  200  A    between atoms: _529  and  _532
REMARK  201  A    between atoms: _535  and  _536
REMARK  202  A    between atoms: _541  and  _543
REMARK  203  A    between atoms: _543  and  _544
REMARK  204  A    between atoms: _543  and  _546
REMARK  205  A    between atoms: _546  and  _547
REMARK  206  A    between atoms: _552  and  _553
REMARK  207  A    between atoms: _556  and  _557
REMARK  208  A    between atoms: _562  and  _564
REMARK  209  A    between atoms: _564  and  _565
REMARK  210  A    between atoms: _564  and  _567
REMARK  211  A    between atoms: _567  and  _568
REMARK  212  A    between atoms: _571  and  _573
REMARK  213  A    between atoms: _573  and  _574
REMARK  214  A    between atoms: _573  and  _576
REMARK  215  A    between atoms: _576  and  _577
REMARK  216  A    between atoms: _580  and  _582
REMARK  217  A    between atoms: _582  and  _583
REMARK  218  A    between atoms: _585  and  _587
REMARK  219  A    between atoms: _587  and  _588
REMARK  220  A    between atoms: _587  and  _590
REMARK  221  A    between atoms: _590  and  _591
REMARK  222  A    between atoms: _591  and  _592
REMARK  223  A    between atoms: _592  and  _593
REMARK  224  A    between atoms: _602  and  _604
REMARK  225  A    between atoms: _604  and  _605
REMARK  226  A    between atoms: _604  and  _607
REMARK  227  A    between atoms: _607  and  _608
REMARK                            x       y       z     vdW  Elec       q    Type
REMARK                         _______ _______ _______ _____ _____    ______ ____
ROOT
ATOM      1  CA  ARG A   2       1.041  -7.097  13.187  0.00  0.00    +0.149 C 
ENDROOT
BRANCH   1   3
ATOM      2  C   GLY A   1      -1.376  -6.912  12.999  0.00  0.00    +0.240 C 
ATOM      3  N   ARG A   2      -0.186  -6.333  13.195  0.00  0.00    -0.297 N 
ATOM      4  H   ARG A   2      -0.143  -5.307  13.357  0.00  0.00    +0.150 HD
ATOM      5  O   GLY A   1      -1.517  -8.130  12.953  0.00  0.00    -0.274 OA
BRANCH   2   6
ATOM      6  CA  GLY A   1      -2.556  -5.981  12.807  0.00  0.00    +0.169 C 
BRANCH   6   7
ATOM      7  N   GLY A   1      -3.880  -6.654  12.845  0.00  0.00    -0.236 NA
ATOM      8  H   GLY A   1      -4.321  -6.864  13.763  0.00  0.00    +0.142 HD
ENDBRANCH   6   7
ENDBRANCH   2   6
ENDBRANCH   1   3
BRANCH   1   9
ATOM      9  C   ARG A   2       1.111  -8.042  14.377  0.00  0.00    +0.241 C 
ATOM     10  N   ASP A   3       0.449  -7.664  15.474  0.00  0.00    -0.298 N 
ATOM     11  H   ASP A   3      -0.054  -6.754  15.491  0.00  0.00    +0.150 HD
ATOM     12  O   ARG A   2       1.780  -9.085  14.308  0.00  0.00    -0.273 OA
BRANCH  10  13
ATOM     13  CA  ASP A   3       0.433  -8.538  16.658  0.00  0.00    +0.148 C 
BRANCH  13  14
ATOM     14  C   ASP A   3      -0.113  -9.934  16.350  0.00  0.00    +0.227 C 
ATOM     15  O   ASP A   3       0.391 -10.917  16.888  0.00  0.00    -0.286 OA
ENDBRANCH  13  14
BRANCH  13  16
ATOM     16  CB  ASP A   3      -0.324  -7.881  17.804  0.00  0.00    +0.142 C 
BRANCH  16  17
ATOM     17  CG  ASP A   3      -1.770  -7.511  17.439  0.00  0.00    +0.367 C 
ATOM     18  OD2 ASP A   3      -2.523  -7.137  18.359  0.00  0.00    -0.246 OA
ATOM     19  OD1 ASP A   3      -2.164  -7.533  16.258  0.00  0.00    -0.246 OA
ENDBRANCH  16  17
ENDBRANCH  13  16
ENDBRANCH  10  13
ENDBRANCH   1   9
BRANCH   1  20
ATOM     20  CB  ARG A   2       2.240  -6.147  13.194  0.00  0.00    +0.033 C 
BRANCH  20  21
ATOM     21  CG  ARG A   2       2.297  -5.259  11.939  0.00  0.00    +0.045 C 
BRANCH  21  22
ATOM     22  CD  ARG A   2       3.667  -4.552  11.836  0.00  0.00    +0.174 C 
BRANCH  22  23
ATOM     23  NE  ARG A   2       3.927  -3.640  12.957  0.00  0.00    -0.265 N 
ATOM     24  HE  ARG A   2       4.425  -4.028  13.784  0.00  0.00    +0.259 HD
ATOM     25  CZ  ARG A   2       3.577  -2.359  12.999  0.00  0.00    +0.342 C 
ATOM     26  NH2 ARG A   2       3.865  -1.654  14.098  0.00  0.00    -0.292 N 
ATOM     27 HH21 ARG A   2       4.353  -2.110  14.895  0.00  0.00    +0.255 HD
ATOM     28 HH22 ARG A   2       3.601  -0.650  14.155  0.00  0.00    +0.255 HD
ATOM     29  NH1 ARG A   2       2.934  -1.776  11.969  0.00  0.00    -0.292 N 
ATOM     30 HH11 ARG A   2       2.669  -0.772  12.023  0.00  0.00    +0.255 HD
ATOM     31 HH12 ARG A   2       2.702  -2.330  11.120  0.00  0.00    +0.255 HD
ENDBRANCH  22  23
ENDBRANCH  21  22
ENDBRANCH  20  21
ENDBRANCH   1  20
TORSDOF 12
REMARK  Name = ../refined-set-2016/3sm2/3sm2_pocket.pdb
REMARK  227 active torsions:
REMARK  status: ('A' for Active; 'I' for Inactive)
REMARK    1  A    between atoms: _2  and  _3
REMARK    2  A    between atoms: _8  and  _10
REMARK    3  A    between atoms: _10  and  _11
REMARK    4  A    between atoms: _10  and  _13
REMARK    5  A    between atoms: _13  and  _14
REMARK    6  A    between atoms: _17  and  _19
REMARK    7  A    between atoms: _19  and  _20
REMARK    8  A    between atoms: _19  and  _22
REMARK    9  A    between atoms: _25  and  _27
REMARK   10  A    between atoms: _27  and  _28
REMARK   11  A    between atoms: _27  and  _30
REMARK   12  A    between atoms: _30  and  _31
REMARK   13  A    between atoms: _34  and  _36
REMARK   14  A    between atoms: _36  and  _37
REMARK   15  A    between atoms: _36  and  _39
REMARK   16  A    between atoms: _39  and  _40
REMARK   17  A    between atoms: _43  and  _45
REMARK   18  A    between atoms: _45  and  _46
REMARK   19  A    between atoms: _48  and  _50
REMARK   20  A    between atoms: _50  and  _51
REMARK   21  A    between atoms: _54  and  _56
REMARK   22  A    between atoms: _56  and  _57
REMARK   23  A    between atoms: _56  and  _59
REMARK   24  A    between atoms: _59  and  _60
REMARK   25  A    between atoms: _60  and  _61
REMARK   26  A    between atoms: _66  and  _68
REMARK   27  A    between atoms: _68  and  _69
REMARK   28  A    between atoms: _68  and  _71
REMARK   29  A    between atoms: _71  and  _72
REMARK   30  A    between atoms: _77  and  _79
REMARK   31  A    between atoms: _79  and  _80
REMARK   32  A    between atoms: _79  and  _82
REMARK   33  A    between atoms: _82  and  _83
REMARK   34  A    between atoms: _85  and  _87
REMARK   35  A    between atoms: _87  and  _88
REMARK   36  A    between atoms: _87  and  _90
REMARK   37  A    between atoms: _93  and  _95
REMARK   38  A    between atoms: _95  and  _96
REMARK   39  A    between atoms: _95  and  _98
REMARK   40  A    between atoms: _98  and  _99
REMARK   41  A    between atoms: _102  and  _104
REMARK   42  A    between atoms: _104  and  _105
REMARK   43  A    between atoms: _104  and  _107
REMARK   44  A    between atoms: _107  and  _108
REMARK   45  A    between atoms: _118  and  _120
REMARK   46  A    between atoms: _120  and  _121
REMARK   47  A    between atoms: _120  and  _123
REMARK   48  A    between atoms: _126  and  _128
REMARK   49  A    between atoms: _128  and  _129
REMARK   50  A    between atoms: _128  and  _131
REMARK   51  A    between atoms: _131  and  _132
REMARK   52  A    between atoms: _132  and  _133
REMARK   53  A    between atoms: _138  and  _140
REMARK   54  A    between atoms: _140  and  _141
REMARK   55  A    between atoms: _143  and  _145
REMARK   56  A    between atoms: _145  and  _146
REMARK   57  A    between atoms: _149  and  _151
REMARK   58  A    between atoms: _151  and  _152
REMARK   59  A    between atoms: _151  and  _154
REMARK   60  A    between atoms: _154  and  _155
REMARK   61  A    between atoms: _158  and  _160
REMARK   62  A    between atoms: _160  and  _161
REMARK   63  A    between atoms: _163  and  _165
REMARK   64  A    between atoms: _165  and  _166
REMARK   65  A    between atoms: _165  and  _168
REMARK   66  A    between atoms: _168  and  _169
REMARK   67  A    between atoms: _174  and  _175
REMARK   68  A    between atoms: _177  and  _179
REMARK   69  A    between atoms: _179  and  _180
REMARK   70  A    between atoms: _179  and  _182
REMARK   71  A    between atoms: _182  and  _183
REMARK   72  A    between atoms: _193  and  _195
REMARK   73  A    between atoms: _195  and  _196
REMARK   74  A    between atoms: _195  and  _198
REMARK   75  A    between atoms: _198  and  _199
REMARK   76  A    between atoms: _202  and  _204
REMARK   77  A    between atoms: _204  and  _205
REMARK   78  A    between atoms: _204  and  _207
REMARK   79  A    between atoms: _210  and  _212
REMARK   80  A    between atoms: _212  and  _213
REMARK   81  A    between atoms: _212  and  _215
REMARK   82  A    between atoms: _215  and  _216
REMARK   83  A    between atoms: _219  and  _221
REMARK   84  A    between atoms: _221  and  _222
REMARK   85  A    between atoms: _221  and  _224
REMARK   86  A    between atoms: _227  and  _228
REMARK   87  A    between atoms: _233  and  _235
REMARK   88  A    between atoms: _235  and  _236
REMARK   89  A    between atoms: _235  and  _238
REMARK   90  A    between atoms: _238  and  _239
REMARK   91  A    between atoms: _244  and  _245
REMARK   92  A    between atoms: _248  and  _249
REMARK   93  A    between atoms: _254  and  _256
REMARK   94  A    between atoms: _256  and  _257
REMARK   95  A    between atoms: _256  and  _259
REMARK   96  A    between atoms: _259  and  _260
REMARK   97  A    between atoms: _263  and  _265
REMARK   98  A    between atoms: _265  and  _266
REMARK   99  A    between atoms: _268  and  _270
REMARK  100  A    between atoms: _270  and  _271
REMARK  101  A    between atoms: _270  and  _273
REMARK  102  A    between atoms: _273  and  _274
REMARK  103  A    between atoms: _274  and  _275
REMARK  104  A    between atoms: _275  and  _276
REMARK  105  A    between atoms: _285  and  _287
REMARK  106  A    between atoms: _287  and  _288
REMARK  107  A    between atoms: _287  and  _290
REMARK  108  A    between atoms: _290  and  _291
REMARK  109  A    between atoms: _295  and  _296
REMARK  110  A    between atoms: _301  and  _303
REMARK  111  A    between atoms: _303  and  _304
REMARK  112  A    between atoms: _303  and  _306
REMARK  113  A    between atoms: _306  and  _307
REMARK  114  A    between atoms: _310  and  _312
REMARK  115  A    between atoms: _312  and  _313
REMARK  116  A    between atoms: _312  and  _315
REMARK  117  A    between atoms: _318  and  _320
REMARK  118  A    between atoms: _320  and  _321
REMARK  119  A    between atoms: _320  and  _323
REMARK  120  A    between atoms: _323  and  _324
REMARK  121  A    between atoms: _327  and  _329
REMARK  122  A    between atoms: _329  and  _330
REMARK  123  A    between atoms: _329  and  _332
REMARK  124  A    between atoms: _332  and  _333
REMARK  125  A    between atoms: _336  and  _338
REMARK  126  A    between atoms: _338  and  _339
REMARK  127  A    between atoms: _341  and  _343
REMARK  128  A    between atoms: _343  and  _344
REMARK  129  A    between atoms: _347  and  _349
REMARK  130  A    between atoms: _349  and  _350
REMARK  131  A    between atoms: _349  and  _352
REMARK  132  A    between atoms: _352  and  _353
REMARK  133  A    between atoms: _353  and  _354
REMARK  134  A    between atoms: _359  and  _361
REMARK  135  A    between atoms: _361  and  _362
REMARK  136  A    between atoms: _361  and  _364
REMARK  137  A    between atoms: _364  and  _365
REMARK  138  A    between atoms: _370  and  _372
REMARK  139  A    between atoms: _372  and  _373
REMARK  140  A    between atoms: _372  and  _375
REMARK  141  A    between atoms: _375  and  _376
REMARK  142  A    between atoms: _378  and  _380
REMARK  143  A    between atoms: _380  and  _381
REMARK  144  A    between atoms: _380  and  _383
REMARK  145  A    between atoms: _386  and  _388
REMARK  146  A    between atoms: _388  and  _389
REMARK  147  A    between atoms: _392  and  _394
REMARK  148  A    between atoms: _394  and  _395
REMARK  149  A    between atoms: _394  and  _397
REMARK  150  A    between atoms: _397  and  _398
REMARK  151  A    between atoms: _408  and  _410
REMARK  152  A    between atoms: _410  and  _411
REMARK  153  A    between atoms: _410  and  _413
REMARK  154  A    between atoms: _416  and  _418
REMARK  155  A    between atoms: _418  and  _419
REMARK  156  A    between atoms: _418  and  _421
REMARK  157  A    between atoms: _421  and  _422
REMARK  158  A    between atoms: _422  and  _423
REMARK  159  A    between atoms: _428  and  _430
REMARK  160  A    between atoms: _430  and  _431
REMARK  161  A    between atoms: _433  and  _435
REMARK  162  A    between atoms: _435  and  _436
REMARK  163  A    between atoms: _439  and  _441
REMARK  164  A    between atoms: _441  and  _442
REMARK  165  A    between atoms: _441  and  _444
REMARK  166  A    between atoms: _444  and  _445
REMARK  167  A    between atoms: _448  and  _450
REMARK  168  A    between atoms: _450  and  _451
REMARK  169  A    between atoms: _453  and  _455
REMARK  170  A    between atoms: _455  and  _456
REMARK  171  A    between atoms: _458  and  _460
REMARK  172  A    between atoms: _460  and  _461
REMARK  173  A    between atoms: _460  and  _463
REMARK  174  A    between atoms: _463  and  _464
REMARK  175  A    between atoms: _464  and  _465
REMARK  176  A    between atoms: _465  and  _466
REMARK  177  A    between atoms: _466  and  _467
REMARK  178  A    between atoms: _471  and  _473
REMARK  179  A    between atoms: _473  and  _474
REMARK  180  A    between atoms: _473  and  _476
REMARK  181  A    between atoms: _476  and  _477
REMARK  182  A    between atoms: _482  and  _483
REMARK  183  A    between atoms: _485  and  _487
REMARK  184  A    between atoms: _487  and  _488
REMARK  185  A    between atoms: _487  and  _490
REMARK  186  A    between atoms: _490  and  _491
REMARK  187  A    between atoms: _501  and  _503
REMARK  188  A    between atoms: _503  and  _504
REMARK  189  A    between atoms: _503  and  _506
REMARK  190  A    between atoms: _506  and  _507
REMARK  191  A    between atoms: _510  and  _512
REMARK  192  A    between atoms: _512  and  _513
REMARK  193  A    between atoms: _512  and  _515
REMARK  194  A    between atoms: _518  and  _520
REMARK  195  A    between atoms: _520  and  _521
REMARK  196  A    between atoms: _520  and  _523
REMARK  197  A    between atoms: _523  and  _524
REMARK  198  A    between atoms: _527  and  _529
REMARK  199  A    between atoms: _529  and  _530
REMARK  200  A    between atoms: _529  and  _532
REMARK  201  A    between atoms: _535  and  _536
REMARK  202  A    between atoms: _541  and  _543
REMARK  203  A    between atoms: _543  and  _544
REMARK  204  A    between atoms: _543  and  _546
REMARK  205  A    between atoms: _546  and  _547
REMARK  206  A    between atoms: _552  and  _553
REMARK  207  A    between atoms: _556  and  _557
REMARK  208  A    between atoms: _562  and  _564
REMARK  209  A    between atoms: _564  and  _565
REMARK  210  A    between atoms: _564  and  _567
REMARK  211  A    between atoms: _567  and  _568
REMARK  212  A    between atoms: _571  and  _573
REMARK  213  A    between atoms: _573  and  _574
REMARK  214  A    between atoms: _573  and  _576
REMARK  215  A    between atoms: _576  and  _577
REMARK  216  A    between atoms: _580  and  _582
REMARK  217  A    between atoms: _582  and  _583
REMARK  218  A    between atoms: _585  and  _587
REMARK  219  A    between atoms: _587  and  _588
REMARK  220  A    between atoms: _587  and  _590
REMARK  221  A    between atoms: _590  and  _591
REMARK  222  A    between atoms: _591  and  _592
REMARK  223  A    between atoms: _592  and  _593
REMARK  224  A    between atoms: _602  and  _604
REMARK  225  A    between atoms: _604  and  _605
REMARK  226  A    between atoms: _604  and  _607
REMARK  227  A    between atoms: _607  and  _608
REMARK                            x       y       z     vdW  Elec       q    Type
REMARK                         _______ _______ _______ _____ _____    ______ ____
ROOT
ATOM      1  N   PRO A   1       8.690   0.531  11.565  0.00  0.00    -0.212 NA
ATOM      2  CA  PRO A   1       8.746  -0.893  11.859  0.00  0.00    +0.137 C 
ATOM      3  CB  PRO A   1       7.471  -1.150  12.690  0.00  0.00    +0.027 C 
ATOM      4  CG  PRO A   1       6.714   0.116  12.702  0.00  0.00    +0.021 C 
ATOM      5  CD  PRO A   1       7.348   1.096  11.793  0.00  0.00    +0.089 C 
ENDROOT
BRANCH   2   6
ATOM      6  C   PRO A   1       8.679  -1.710  10.557  0.00  0.00    +0.224 C 
ATOM      7  O   PRO A   1       8.289  -1.173   9.509  0.00  0.00    -0.287 OA
ENDBRANCH   2   6
TORSDOF 1
REMARK  Name = ../refined-set-2016/3sm2/3sm2_pocket.pdb
REMARK  227 active torsions:
REMARK  status: ('A' for Active; 'I' for Inactive)
REMARK    1  A    between atoms: _2  and  _3
REMARK    2  A    between atoms: _8  and  _10
REMARK    3  A    between atoms: _10  and  _11
REMARK    4  A    between atoms: _10  and  _13
REMARK    5  A    between atoms: _13  and  _14
REMARK    6  A    between atoms: _17  and  _19
REMARK    7  A    between atoms: _19  and  _20
REMARK    8  A    between atoms: _19  and  _22
REMARK    9  A    between atoms: _25  and  _27
REMARK   10  A    between atoms: _27  and  _28
REMARK   11  A    between atoms: _27  and  _30
REMARK   12  A    between atoms: _30  and  _31
REMARK   13  A    between atoms: _34  and  _36
REMARK   14  A    between atoms: _36  and  _37
REMARK   15  A    between atoms: _36  and  _39
REMARK   16  A    between atoms: _39  and  _40
REMARK   17  A    between atoms: _43  and  _45
REMARK   18  A    between atoms: _45  and  _46
REMARK   19  A    between atoms: _48  and  _50
REMARK   20  A    between atoms: _50  and  _51
REMARK   21  A    between atoms: _54  and  _56
REMARK   22  A    between atoms: _56  and  _57
REMARK   23  A    between atoms: _56  and  _59
REMARK   24  A    between atoms: _59  and  _60
REMARK   25  A    between atoms: _60  and  _61
REMARK   26  A    between atoms: _66  and  _68
REMARK   27  A    between atoms: _68  and  _69
REMARK   28  A    between atoms: _68  and  _71
REMARK   29  A    between atoms: _71  and  _72
REMARK   30  A    between atoms: _77  and  _79
REMARK   31  A    between atoms: _79  and  _80
REMARK   32  A    between atoms: _79  and  _82
REMARK   33  A    between atoms: _82  and  _83
REMARK   34  A    between atoms: _85  and  _87
REMARK   35  A    between atoms: _87  and  _88
REMARK   36  A    between atoms: _87  and  _90
REMARK   37  A    between atoms: _93  and  _95
REMARK   38  A    between atoms: _95  and  _96
REMARK   39  A    between atoms: _95  and  _98
REMARK   40  A    between atoms: _98  and  _99
REMARK   41  A    between atoms: _102  and  _104
REMARK   42  A    between atoms: _104  and  _105
REMARK   43  A    between atoms: _104  and  _107
REMARK   44  A    between atoms: _107  and  _108
REMARK   45  A    between atoms: _118  and  _120
REMARK   46  A    between atoms: _120  and  _121
REMARK   47  A    between atoms: _120  and  _123
REMARK   48  A    between atoms: _126  and  _128
REMARK   49  A    between atoms: _128  and  _129
REMARK   50  A    between atoms: _128  and  _131
REMARK   51  A    between atoms: _131  and  _132
REMARK   52  A    between atoms: _132  and  _133
REMARK   53  A    between atoms: _138  and  _140
REMARK   54  A    between atoms: _140  and  _141
REMARK   55  A    between atoms: _143  and  _145
REMARK   56  A    between atoms: _145  and  _146
REMARK   57  A    between atoms: _149  and  _151
REMARK   58  A    between atoms: _151  and  _152
REMARK   59  A    between atoms: _151  and  _154
REMARK   60  A    between atoms: _154  and  _155
REMARK   61  A    between atoms: _158  and  _160
REMARK   62  A    between atoms: _160  and  _161
REMARK   63  A    between atoms: _163  and  _165
REMARK   64  A    between atoms: _165  and  _166
REMARK   65  A    between atoms: _165  and  _168
REMARK   66  A    between atoms: _168  and  _169
REMARK   67  A    between atoms: _174  and  _175
REMARK   68  A    between atoms: _177  and  _179
REMARK   69  A    between atoms: _179  and  _180
REMARK   70  A    between atoms: _179  and  _182
REMARK   71  A    between atoms: _182  and  _183
REMARK   72  A    between atoms: _193  and  _195
REMARK   73  A    between atoms: _195  and  _196
REMARK   74  A    between atoms: _195  and  _198
REMARK   75  A    between atoms: _198  and  _199
REMARK   76  A    between atoms: _202  and  _204
REMARK   77  A    between atoms: _204  and  _205
REMARK   78  A    between atoms: _204  and  _207
REMARK   79  A    between atoms: _210  and  _212
REMARK   80  A    between atoms: _212  and  _213
REMARK   81  A    between atoms: _212  and  _215
REMARK   82  A    between atoms: _215  and  _216
REMARK   83  A    between atoms: _219  and  _221
REMARK   84  A    between atoms: _221  and  _222
REMARK   85  A    between atoms: _221  and  _224
REMARK   86  A    between atoms: _227  and  _228
REMARK   87  A    between atoms: _233  and  _235
REMARK   88  A    between atoms: _235  and  _236
REMARK   89  A    between atoms: _235  and  _238
REMARK   90  A    between atoms: _238  and  _239
REMARK   91  A    between atoms: _244  and  _245
REMARK   92  A    between atoms: _248  and  _249
REMARK   93  A    between atoms: _254  and  _256
REMARK   94  A    between atoms: _256  and  _257
REMARK   95  A    between atoms: _256  and  _259
REMARK   96  A    between atoms: _259  and  _260
REMARK   97  A    between atoms: _263  and  _265
REMARK   98  A    between atoms: _265  and  _266
REMARK   99  A    between atoms: _268  and  _270
REMARK  100  A    between atoms: _270  and  _271
REMARK  101  A    between atoms: _270  and  _273
REMARK  102  A    between atoms: _273  and  _274
REMARK  103  A    between atoms: _274  and  _275
REMARK  104  A    between atoms: _275  and  _276
REMARK  105  A    between atoms: _285  and  _287
REMARK  106  A    between atoms: _287  and  _288
REMARK  107  A    between atoms: _287  and  _290
REMARK  108  A    between atoms: _290  and  _291
REMARK  109  A    between atoms: _295  and  _296
REMARK  110  A    between atoms: _301  and  _303
REMARK  111  A    between atoms: _303  and  _304
REMARK  112  A    between atoms: _303  and  _306
REMARK  113  A    between atoms: _306  and  _307
REMARK  114  A    between atoms: _310  and  _312
REMARK  115  A    between atoms: _312  and  _313
REMARK  116  A    between atoms: _312  and  _315
REMARK  117  A    between atoms: _318  and  _320
REMARK  118  A    between atoms: _320  and  _321
REMARK  119  A    between atoms: _320  and  _323
REMARK  120  A    between atoms: _323  and  _324
REMARK  121  A    between atoms: _327  and  _329
REMARK  122  A    between atoms: _329  and  _330
REMARK  123  A    between atoms: _329  and  _332
REMARK  124  A    between atoms: _332  and  _333
REMARK  125  A    between atoms: _336  and  _338
REMARK  126  A    between atoms: _338  and  _339
REMARK  127  A    between atoms: _341  and  _343
REMARK  128  A    between atoms: _343  and  _344
REMARK  129  A    between atoms: _347  and  _349
REMARK  130  A    between atoms: _349  and  _350
REMARK  131  A    between atoms: _349  and  _352
REMARK  132  A    between atoms: _352  and  _353
REMARK  133  A    between atoms: _353  and  _354
REMARK  134  A    between atoms: _359  and  _361
REMARK  135  A    between atoms: _361  and  _362
REMARK  136  A    between atoms: _361  and  _364
REMARK  137  A    between atoms: _364  and  _365
REMARK  138  A    between atoms: _370  and  _372
REMARK  139  A    between atoms: _372  and  _373
REMARK  140  A    between atoms: _372  and  _375
REMARK  141  A    between atoms: _375  and  _376
REMARK  142  A    between atoms: _378  and  _380
REMARK  143  A    between atoms: _380  and  _381
REMARK  144  A    between atoms: _380  and  _383
REMARK  145  A    between atoms: _386  and  _388
REMARK  146  A    between atoms: _388  and  _389
REMARK  147  A    between atoms: _392  and  _394
REMARK  148  A    between atoms: _394  and  _395
REMARK  149  A    between atoms: _394  and  _397
REMARK  150  A    between atoms: _397  and  _398
REMARK  151  A    between atoms: _408  and  _410
REMARK  152  A    between atoms: _410  and  _411
REMARK  153  A    between atoms: _410  and  _413
REMARK  154  A    between atoms: _416  and  _418
REMARK  155  A    between atoms: _418  and  _419
REMARK  156  A    between atoms: _418  and  _421
REMARK  157  A    between atoms: _421  and  _422
REMARK  158  A    between atoms: _422  and  _423
REMARK  159  A    between atoms: _428  and  _430
REMARK  160  A    between atoms: _430  and  _431
REMARK  161  A    between atoms: _433  and  _435
REMARK  162  A    between atoms: _435  and  _436
REMARK  163  A    between atoms: _439  and  _441
REMARK  164  A    between atoms: _441  and  _442
REMARK  165  A    between atoms: _441  and  _444
REMARK  166  A    between atoms: _444  and  _445
REMARK  167  A    between atoms: _448  and  _450
REMARK  168  A    between atoms: _450  and  _451
REMARK  169  A    between atoms: _453  and  _455
REMARK  170  A    between atoms: _455  and  _456
REMARK  171  A    between atoms: _458  and  _460
REMARK  172  A    between atoms: _460  and  _461
REMARK  173  A    between atoms: _460  and  _463
REMARK  174  A    between atoms: _463  and  _464
REMARK  175  A    between atoms: _464  and  _465
REMARK  176  A    between atoms: _465  and  _466
REMARK  177  A    between atoms: _466  and  _467
REMARK  178  A    between atoms: _471  and  _473
REMARK  179  A    between atoms: _473  and  _474
REMARK  180  A    between atoms: _473  and  _476
REMARK  181  A    between atoms: _476  and  _477
REMARK  182  A    between atoms: _482  and  _483
REMARK  183  A    between atoms: _485  and  _487
REMARK  184  A    between atoms: _487  and  _488
REMARK  185  A    between atoms: _487  and  _490
REMARK  186  A    between atoms: _490  and  _491
REMARK  187  A    between atoms: _501  and  _503
REMARK  188  A    between atoms: _503  and  _504
REMARK  189  A    between atoms: _503  and  _506
REMARK  190  A    between atoms: _506  and  _507
REMARK  191  A    between atoms: _510  and  _512
REMARK  192  A    between atoms: _512  and  _513
REMARK  193  A    between atoms: _512  and  _515
REMARK  194  A    between atoms: _518  and  _520
REMARK  195  A    between atoms: _520  and  _521
REMARK  196  A    between atoms: _520  and  _523
REMARK  197  A    between atoms: _523  and  _524
REMARK  198  A    between atoms: _527  and  _529
REMARK  199  A    between atoms: _529  and  _530
REMARK  200  A    between atoms: _529  and  _532
REMARK  201  A    between atoms: _535  and  _536
REMARK  202  A    between atoms: _541  and  _543
REMARK  203  A    between atoms: _543  and  _544
REMARK  204  A    between atoms: _543  and  _546
REMARK  205  A    between atoms: _546  and  _547
REMARK  206  A    between atoms: _552  and  _553
REMARK  207  A    between atoms: _556  and  _557
REMARK  208  A    between atoms: _562  and  _564
REMARK  209  A    between atoms: _564  and  _565
REMARK  210  A    between atoms: _564  and  _567
REMARK  211  A    between atoms: _567  and  _568
REMARK  212  A    between atoms: _571  and  _573
REMARK  213  A    between atoms: _573  and  _574
REMARK  214  A    between atoms: _573  and  _576
REMARK  215  A    between atoms: _576  and  _577
REMARK  216  A    between atoms: _580  and  _582
REMARK  217  A    between atoms: _582  and  _583
REMARK  218  A    between atoms: _585  and  _587
REMARK  219  A    between atoms: _587  and  _588
REMARK  220  A    between atoms: _587  and  _590
REMARK  221  A    between atoms: _590  and  _591
REMARK  222  A    between atoms: _591  and  _592
REMARK  223  A    between atoms: _592  and  _593
REMARK  224  A    between atoms: _602  and  _604
REMARK  225  A    between atoms: _604  and  _605
REMARK  226  A    between atoms: _604  and  _607
REMARK  227  A    between atoms: _607  and  _608
REMARK                            x       y       z     vdW  Elec       q    Type
REMARK                         _______ _______ _______ _____ _____    ______ ____
ROOT
ATOM      1  CA  ALA A   6      -3.715   2.413   3.628  0.00  0.00    +0.149 C 
ATOM      2  CB  ALA A   6      -2.296   3.014   3.597  0.00  0.00    +0.031 C 
ENDROOT
BRANCH   1   3
ATOM      3  C   ALA A   6      -4.231   2.300   2.226  0.00  0.00    +0.241 C 
ATOM      4  N   GLN A   7      -5.279   3.057   1.933  0.00  0.00    -0.297 N 
ATOM      5  H   GLN A   7      -5.688   3.665   2.671  0.00  0.00    +0.150 HD
ATOM      6  O   ALA A   6      -3.663   1.594   1.407  0.00  0.00    -0.273 OA
BRANCH   4   7
ATOM      7  CA  GLN A   7      -5.874   3.059   0.600  0.00  0.00    +0.149 C 
BRANCH   7   8
ATOM      8  C   GLN A   7      -4.888   3.742  -0.368  0.00  0.00    +0.241 C 
ATOM      9  N   HIS A   8      -4.313   4.867   0.070  0.00  0.00    -0.297 N 
ATOM     10  H   HIS A   8      -4.535   5.200   1.030  0.00  0.00    +0.150 HD
ATOM     11  O   GLN A   7      -4.639   3.244  -1.476  0.00  0.00    -0.273 OA
BRANCH   9  12
ATOM     12  CA  HIS A   8      -3.379   5.652  -0.752  0.00  0.00    +0.155 C 
BRANCH  12  13
ATOM     13  C   HIS A   8      -2.074   5.827   0.016  0.00  0.00    +0.241 C 
ATOM     14  O   HIS A   8      -2.093   5.940   1.257  0.00  0.00    -0.273 OA
ATOM     15  N   SER A   9      -0.980   5.881  -0.740  0.00  0.00    -0.295 N 
ATOM     16  H   SER A   9      -1.080   5.747  -1.766  0.00  0.00    +0.150 HD
BRANCH  15  17
ATOM     17  CA  SER A   9       0.361   6.121  -0.193  0.00  0.00    +0.178 C 
BRANCH  17  18
ATOM     18  C   SER A   9       0.560   7.545   0.351  0.00  0.00    +0.243 C 
ATOM     19  N   VAL A  10       1.433   7.669   1.361  0.00  0.00    -0.298 N 
ATOM     20  H   VAL A  10       2.073   6.875   1.566  0.00  0.00    +0.150 HD
ATOM     21  O   SER A   9      -0.065   8.496  -0.124  0.00  0.00    -0.273 OA
BRANCH  19  22
ATOM     22  CA  VAL A  10       1.524   8.881   2.193  0.00  0.00    +0.137 C 
BRANCH  22  23
ATOM     23  CB  VAL A  10       0.911   8.591   3.593  0.00  0.00    +0.026 C 
ATOM     24  CG2 VAL A  10       1.273   9.670   4.648  0.00  0.00    +0.002 C 
ATOM     25  CG1 VAL A  10      -0.617   8.440   3.482  0.00  0.00    +0.002 C 
ENDBRANCH  22  23
BRANCH  22  26
ATOM     26  C   VAL A  10       2.975   9.296   2.354  0.00  0.00    +0.227 C 
ATOM     27  O   VAL A  10       3.838   8.430   2.560  0.00  0.00    -0.286 OA
ENDBRANCH  22  26
ENDBRANCH  19  22
ENDBRANCH  17  18
BRANCH  17  28
ATOM     28  CB  SER A   9       1.421   5.741  -1.226  0.00  0.00    +0.166 C 
BRANCH  28  29
ATOM     29  OG  SER A   9       1.360   4.326  -1.401  0.00  0.00    -0.380 OA
ATOM     30  H   SER A   9       0.458   4.073  -1.721  0.00  0.00    +0.211 HD
ENDBRANCH  28  29
ENDBRANCH  17  28
ENDBRANCH  15  17
ENDBRANCH  12  13
BRANCH  12  31
ATOM     31  CB  HIS A   8      -3.921   7.055  -1.093  0.00  0.00    +0.076 C 
BRANCH  31  32
ATOM     32  CG  HIS A   8      -5.311   7.058  -1.658  0.00  0.00    +0.082 A 
ATOM     33  ND1 HIS A   8      -6.392   7.587  -0.979  0.00  0.00    -0.227 NA
ATOM     34  CE1 HIS A   8      -7.481   7.456  -1.722  0.00  0.00    +0.199 A 
ATOM     35  NE2 HIS A   8      -7.143   6.868  -2.857  0.00  0.00    -0.221 NA
ATOM     36  CD2 HIS A   8      -5.788   6.624  -2.848  0.00  0.00    +0.115 A 
ENDBRANCH  31  32
ENDBRANCH  12  31
ENDBRANCH   9  12
ENDBRANCH   7   8
BRANCH   7  37
ATOM     37  CB  GLN A   7      -7.204   3.828   0.689  0.00  0.00    +0.039 C 
BRANCH  37  38
ATOM     38  CG  GLN A   7      -8.010   3.876  -0.603  0.00  0.00    +0.087 C 
BRANCH  38  39
ATOM     39  CD  GLN A   7      -9.388   4.468  -0.385  0.00  0.00    +0.219 C 
ATOM     40  OE1 GLN A   7      -9.911   4.481   0.736  0.00  0.00    -0.275 OA
ATOM     41  NE2 GLN A   7      -9.975   4.986  -1.448  0.00  0.00    -0.329 N 
ATOM     42 HE21 GLN A   7     -10.913   5.427  -1.361  0.00  0.00    +0.145 HD
ATOM     43 HE22 GLN A   7      -9.499   4.954  -2.372  0.00  0.00    +0.145 HD
ENDBRANCH  38  39
ENDBRANCH  37  38
ENDBRANCH   7  37
ENDBRANCH   4   7
ENDBRANCH   1   3
BRANCH   1  46
ATOM     44  C   GLY A   5      -4.657   0.625   5.052  0.00  0.00    +0.243 C 
ATOM     45  O   GLY A   5      -5.656   1.289   5.342  0.00  0.00    -0.273 OA
ATOM     46  N   ALA A   6      -3.703   1.062   4.227  0.00  0.00    -0.297 N 
ATOM     47  H   ALA A   6      -2.916   0.423   3.995  0.00  0.00    +0.150 HD
BRANCH  44  48
ATOM     48  CA  GLY A   5      -4.465  -0.763   5.650  0.00  0.00    +0.176 C 
BRANCH  48  50
ATOM     49  C   THR A   4      -3.305  -2.205   4.042  0.00  0.00    +0.243 C 
ATOM     50  N   GLY A   5      -3.269  -1.461   5.149  0.00  0.00    -0.295 N 
ATOM     51  H   GLY A   5      -2.374  -1.372   5.671  0.00  0.00    +0.150 HD
ATOM     52  O   THR A   4      -4.320  -2.363   3.372  0.00  0.00    -0.273 OA
BRANCH  49  53
ATOM     53  CA  THR A   4      -2.005  -2.861   3.596  0.00  0.00    +0.176 C 
BRANCH  53  55
ATOM     54  C   ASP A   3      -0.432  -1.076   4.123  0.00  0.00    +0.241 C 
ATOM     55  N   THR A   4      -0.831  -2.339   4.291  0.00  0.00    -0.295 N 
ATOM     56  H   THR A   4      -0.296  -2.963   4.928  0.00  0.00    +0.150 HD
ATOM     57  O   ASP A   3      -1.008  -0.295   3.373  0.00  0.00    -0.273 OA
BRANCH  54  58
ATOM     58  CA  ASP A   3       0.772  -0.626   4.947  0.00  0.00    +0.160 C 
BRANCH  58  61
ATOM     59  C   VAL A   2       3.086  -1.322   4.749  0.00  0.00    +0.241 C 
ATOM     60  O   VAL A   2       3.032  -1.960   5.811  0.00  0.00    -0.273 OA
ATOM     61  N   ASP A   3       2.027  -0.724   4.199  0.00  0.00    -0.297 N 
ATOM     62  H   ASP A   3       2.093  -0.328   3.240  0.00  0.00    +0.150 HD
BRANCH  59  63
ATOM     63  CA  VAL A   2       4.426  -1.086   4.054  0.00  0.00    +0.148 C 
BRANCH  63  65
ATOM     64  C   LEU A   1       5.177   0.849   5.334  0.00  0.00    +0.238 C 
ATOM     65  N   VAL A   2       5.332  -0.440   5.021  0.00  0.00    -0.297 N 
ATOM     66  H   VAL A   2       6.096  -0.991   5.462  0.00  0.00    +0.150 HD
ATOM     67  O   LEU A   1       4.360   1.579   4.742  0.00  0.00    -0.274 OA
BRANCH  64  68
ATOM     68  CA  LEU A   1       6.106   1.425   6.393  0.00  0.00    +0.145 C 
BRANCH  68  69
ATOM     69  N   LEU A   1       6.813   2.562   5.818  0.00  0.00    -0.238 NA
ATOM     70  H   LEU A   1       6.590   3.527   6.135  0.00  0.00    +0.142 HD
ENDBRANCH  68  69
BRANCH  68  71
ATOM     71  CB  LEU A   1       5.300   1.879   7.617  0.00  0.00    +0.026 C 
BRANCH  71  72
ATOM     72  CG  LEU A   1       4.335   0.843   8.210  0.00  0.00    +0.002 C 
ATOM     73  CD2 LEU A   1       3.565   1.479   9.333  0.00  0.00    +0.000 C 
ATOM     74  CD1 LEU A   1       5.105  -0.338   8.716  0.00  0.00    +0.000 C 
ENDBRANCH  71  72
ENDBRANCH  68  71
ENDBRANCH  64  68
ENDBRANCH  63  65
BRANCH  63  75
ATOM     75  CB  VAL A   2       5.057  -2.378   3.490  0.00  0.00    +0.027 C 
ATOM     76  CG2 VAL A   2       4.026  -3.210   2.680  0.00  0.00    +0.002 C 
ATOM     77  CG1 VAL A   2       6.323  -2.000   2.669  0.00  0.00    +0.002 C 
ENDBRANCH  63  75
ENDBRANCH  59  63
ENDBRANCH  58  61
BRANCH  58  78
ATOM     78  CB  ASP A   3       0.593   0.826   5.427  0.00  0.00    +0.143 C 
BRANCH  78  79
ATOM     79  CG  ASP A   3      -0.582   0.989   6.370  0.00  0.00    +0.367 C 
ATOM     80  OD2 ASP A   3      -0.741   2.112   6.879  0.00  0.00    -0.246 OA
ATOM     81  OD1 ASP A   3      -1.312   0.002   6.613  0.00  0.00    -0.246 OA
ENDBRANCH  78  79
ENDBRANCH  58  78
ENDBRANCH  54  58
ENDBRANCH  53  55
BRANCH  53  82
ATOM     82  CB  THR A   4      -2.125  -4.388   3.776  0.00  0.00    +0.137 C 
ATOM     83  CG2 THR A   4      -0.909  -5.088   3.196  0.00  0.00    +0.034 C 
BRANCH  82  84
ATOM     84  OG1 THR A   4      -2.192  -4.688   5.171  0.00  0.00    -0.382 OA
ATOM     85  HG1 THR A   4      -2.983  -4.242   5.566  0.00  0.00    +0.210 HD
ENDBRANCH  82  84
ENDBRANCH  53  82
ENDBRANCH  49  53
ENDBRANCH  48  50
ENDBRANCH  44  48
ENDBRANCH   1  46
TORSDOF 35
REMARK  Name = ../refined-set-2016/3sm2/3sm2_pocket.pdb
REMARK  227 active torsions:
REMARK  status: ('A' for Active; 'I' for Inactive)
REMARK    1  A    between atoms: _2  and  _3
REMARK    2  A    between atoms: _8  and  _10
REMARK    3  A    between atoms: _10  and  _11
REMARK    4  A    between atoms: _10  and  _13
REMARK    5  A    between atoms: _13  and  _14
REMARK    6  A    between atoms: _17  and  _19
REMARK    7  A    between atoms: _19  and  _20
REMARK    8  A    between atoms: _19  and  _22
REMARK    9  A    between atoms: _25  and  _27
REMARK   10  A    between atoms: _27  and  _28
REMARK   11  A    between atoms: _27  and  _30
REMARK   12  A    between atoms: _30  and  _31
REMARK   13  A    between atoms: _34  and  _36
REMARK   14  A    between atoms: _36  and  _37
REMARK   15  A    between atoms: _36  and  _39
REMARK   16  A    between atoms: _39  and  _40
REMARK   17  A    between atoms: _43  and  _45
REMARK   18  A    between atoms: _45  and  _46
REMARK   19  A    between atoms: _48  and  _50
REMARK   20  A    between atoms: _50  and  _51
REMARK   21  A    between atoms: _54  and  _56
REMARK   22  A    between atoms: _56  and  _57
REMARK   23  A    between atoms: _56  and  _59
REMARK   24  A    between atoms: _59  and  _60
REMARK   25  A    between atoms: _60  and  _61
REMARK   26  A    between atoms: _66  and  _68
REMARK   27  A    between atoms: _68  and  _69
REMARK   28  A    between atoms: _68  and  _71
REMARK   29  A    between atoms: _71  and  _72
REMARK   30  A    between atoms: _77  and  _79
REMARK   31  A    between atoms: _79  and  _80
REMARK   32  A    between atoms: _79  and  _82
REMARK   33  A    between atoms: _82  and  _83
REMARK   34  A    between atoms: _85  and  _87
REMARK   35  A    between atoms: _87  and  _88
REMARK   36  A    between atoms: _87  and  _90
REMARK   37  A    between atoms: _93  and  _95
REMARK   38  A    between atoms: _95  and  _96
REMARK   39  A    between atoms: _95  and  _98
REMARK   40  A    between atoms: _98  and  _99
REMARK   41  A    between atoms: _102  and  _104
REMARK   42  A    between atoms: _104  and  _105
REMARK   43  A    between atoms: _104  and  _107
REMARK   44  A    between atoms: _107  and  _108
REMARK   45  A    between atoms: _118  and  _120
REMARK   46  A    between atoms: _120  and  _121
REMARK   47  A    between atoms: _120  and  _123
REMARK   48  A    between atoms: _126  and  _128
REMARK   49  A    between atoms: _128  and  _129
REMARK   50  A    between atoms: _128  and  _131
REMARK   51  A    between atoms: _131  and  _132
REMARK   52  A    between atoms: _132  and  _133
REMARK   53  A    between atoms: _138  and  _140
REMARK   54  A    between atoms: _140  and  _141
REMARK   55  A    between atoms: _143  and  _145
REMARK   56  A    between atoms: _145  and  _146
REMARK   57  A    between atoms: _149  and  _151
REMARK   58  A    between atoms: _151  and  _152
REMARK   59  A    between atoms: _151  and  _154
REMARK   60  A    between atoms: _154  and  _155
REMARK   61  A    between atoms: _158  and  _160
REMARK   62  A    between atoms: _160  and  _161
REMARK   63  A    between atoms: _163  and  _165
REMARK   64  A    between atoms: _165  and  _166
REMARK   65  A    between atoms: _165  and  _168
REMARK   66  A    between atoms: _168  and  _169
REMARK   67  A    between atoms: _174  and  _175
REMARK   68  A    between atoms: _177  and  _179
REMARK   69  A    between atoms: _179  and  _180
REMARK   70  A    between atoms: _179  and  _182
REMARK   71  A    between atoms: _182  and  _183
REMARK   72  A    between atoms: _193  and  _195
REMARK   73  A    between atoms: _195  and  _196
REMARK   74  A    between atoms: _195  and  _198
REMARK   75  A    between atoms: _198  and  _199
REMARK   76  A    between atoms: _202  and  _204
REMARK   77  A    between atoms: _204  and  _205
REMARK   78  A    between atoms: _204  and  _207
REMARK   79  A    between atoms: _210  and  _212
REMARK   80  A    between atoms: _212  and  _213
REMARK   81  A    between atoms: _212  and  _215
REMARK   82  A    between atoms: _215  and  _216
REMARK   83  A    between atoms: _219  and  _221
REMARK   84  A    between atoms: _221  and  _222
REMARK   85  A    between atoms: _221  and  _224
REMARK   86  A    between atoms: _227  and  _228
REMARK   87  A    between atoms: _233  and  _235
REMARK   88  A    between atoms: _235  and  _236
REMARK   89  A    between atoms: _235  and  _238
REMARK   90  A    between atoms: _238  and  _239
REMARK   91  A    between atoms: _244  and  _245
REMARK   92  A    between atoms: _248  and  _249
REMARK   93  A    between atoms: _254  and  _256
REMARK   94  A    between atoms: _256  and  _257
REMARK   95  A    between atoms: _256  and  _259
REMARK   96  A    between atoms: _259  and  _260
REMARK   97  A    between atoms: _263  and  _265
REMARK   98  A    between atoms: _265  and  _266
REMARK   99  A    between atoms: _268  and  _270
REMARK  100  A    between atoms: _270  and  _271
REMARK  101  A    between atoms: _270  and  _273
REMARK  102  A    between atoms: _273  and  _274
REMARK  103  A    between atoms: _274  and  _275
REMARK  104  A    between atoms: _275  and  _276
REMARK  105  A    between atoms: _285  and  _287
REMARK  106  A    between atoms: _287  and  _288
REMARK  107  A    between atoms: _287  and  _290
REMARK  108  A    between atoms: _290  and  _291
REMARK  109  A    between atoms: _295  and  _296
REMARK  110  A    between atoms: _301  and  _303
REMARK  111  A    between atoms: _303  and  _304
REMARK  112  A    between atoms: _303  and  _306
REMARK  113  A    between atoms: _306  and  _307
REMARK  114  A    between atoms: _310  and  _312
REMARK  115  A    between atoms: _312  and  _313
REMARK  116  A    between atoms: _312  and  _315
REMARK  117  A    between atoms: _318  and  _320
REMARK  118  A    between atoms: _320  and  _321
REMARK  119  A    between atoms: _320  and  _323
REMARK  120  A    between atoms: _323  and  _324
REMARK  121  A    between atoms: _327  and  _329
REMARK  122  A    between atoms: _329  and  _330
REMARK  123  A    between atoms: _329  and  _332
REMARK  124  A    between atoms: _332  and  _333
REMARK  125  A    between atoms: _336  and  _338
REMARK  126  A    between atoms: _338  and  _339
REMARK  127  A    between atoms: _341  and  _343
REMARK  128  A    between atoms: _343  and  _344
REMARK  129  A    between atoms: _347  and  _349
REMARK  130  A    between atoms: _349  and  _350
REMARK  131  A    between atoms: _349  and  _352
REMARK  132  A    between atoms: _352  and  _353
REMARK  133  A    between atoms: _353  and  _354
REMARK  134  A    between atoms: _359  and  _361
REMARK  135  A    between atoms: _361  and  _362
REMARK  136  A    between atoms: _361  and  _364
REMARK  137  A    between atoms: _364  and  _365
REMARK  138  A    between atoms: _370  and  _372
REMARK  139  A    between atoms: _372  and  _373
REMARK  140  A    between atoms: _372  and  _375
REMARK  141  A    between atoms: _375  and  _376
REMARK  142  A    between atoms: _378  and  _380
REMARK  143  A    between atoms: _380  and  _381
REMARK  144  A    between atoms: _380  and  _383
REMARK  145  A    between atoms: _386  and  _388
REMARK  146  A    between atoms: _388  and  _389
REMARK  147  A    between atoms: _392  and  _394
REMARK  148  A    between atoms: _394  and  _395
REMARK  149  A    between atoms: _394  and  _397
REMARK  150  A    between atoms: _397  and  _398
REMARK  151  A    between atoms: _408  and  _410
REMARK  152  A    between atoms: _410  and  _411
REMARK  153  A    between atoms: _410  and  _413
REMARK  154  A    between atoms: _416  and  _418
REMARK  155  A    between atoms: _418  and  _419
REMARK  156  A    between atoms: _418  and  _421
REMARK  157  A    between atoms: _421  and  _422
REMARK  158  A    between atoms: _422  and  _423
REMARK  159  A    between atoms: _428  and  _430
REMARK  160  A    between atoms: _430  and  _431
REMARK  161  A    between atoms: _433  and  _435
REMARK  162  A    between atoms: _435  and  _436
REMARK  163  A    between atoms: _439  and  _441
REMARK  164  A    between atoms: _441  and  _442
REMARK  165  A    between atoms: _441  and  _444
REMARK  166  A    between atoms: _444  and  _445
REMARK  167  A    between atoms: _448  and  _450
REMARK  168  A    between atoms: _450  and  _451
REMARK  169  A    between atoms: _453  and  _455
REMARK  170  A    between atoms: _455  and  _456
REMARK  171  A    between atoms: _458  and  _460
REMARK  172  A    between atoms: _460  and  _461
REMARK  173  A    between atoms: _460  and  _463
REMARK  174  A    between atoms: _463  and  _464
REMARK  175  A    between atoms: _464  and  _465
REMARK  176  A    between atoms: _465  and  _466
REMARK  177  A    between atoms: _466  and  _467
REMARK  178  A    between atoms: _471  and  _473
REMARK  179  A    between atoms: _473  and  _474
REMARK  180  A    between atoms: _473  and  _476
REMARK  181  A    between atoms: _476  and  _477
REMARK  182  A    between atoms: _482  and  _483
REMARK  183  A    between atoms: _485  and  _487
REMARK  184  A    between atoms: _487  and  _488
REMARK  185  A    between atoms: _487  and  _490
REMARK  186  A    between atoms: _490  and  _491
REMARK  187  A    between atoms: _501  and  _503
REMARK  188  A    between atoms: _503  and  _504
REMARK  189  A    between atoms: _503  and  _506
REMARK  190  A    between atoms: _506  and  _507
REMARK  191  A    between atoms: _510  and  _512
REMARK  192  A    between atoms: _512  and  _513
REMARK  193  A    between atoms: _512  and  _515
REMARK  194  A    between atoms: _518  and  _520
REMARK  195  A    between atoms: _520  and  _521
REMARK  196  A    between atoms: _520  and  _523
REMARK  197  A    between atoms: _523  and  _524
REMARK  198  A    between atoms: _527  and  _529
REMARK  199  A    between atoms: _529  and  _530
REMARK  200  A    between atoms: _529  and  _532
REMARK  201  A    between atoms: _535  and  _536
REMARK  202  A    between atoms: _541  and  _543
REMARK  203  A    between atoms: _543  and  _544
REMARK  204  A    between atoms: _543  and  _546
REMARK  205  A    between atoms: _546  and  _547
REMARK  206  A    between atoms: _552  and  _553
REMARK  207  A    between atoms: _556  and  _557
REMARK  208  A    between atoms: _562  and  _564
REMARK  209  A    between atoms: _564  and  _565
REMARK  210  A    between atoms: _564  and  _567
REMARK  211  A    between atoms: _567  and  _568
REMARK  212  A    between atoms: _571  and  _573
REMARK  213  A    between atoms: _573  and  _574
REMARK  214  A    between atoms: _573  and  _576
REMARK  215  A    between atoms: _576  and  _577
REMARK  216  A    between atoms: _580  and  _582
REMARK  217  A    between atoms: _582  and  _583
REMARK  218  A    between atoms: _585  and  _587
REMARK  219  A    between atoms: _587  and  _588
REMARK  220  A    between atoms: _587  and  _590
REMARK  221  A    between atoms: _590  and  _591
REMARK  222  A    between atoms: _591  and  _592
REMARK  223  A    between atoms: _592  and  _593
REMARK  224  A    between atoms: _602  and  _604
REMARK  225  A    between atoms: _604  and  _605
REMARK  226  A    between atoms: _604  and  _607
REMARK  227  A    between atoms: _607  and  _608
REMARK                            x       y       z     vdW  Elec       q    Type
REMARK                         _______ _______ _______ _____ _____    ______ ____
ROOT
ATOM      1  C   GLN A   4      -9.336   7.553   8.355  0.00  0.00    +0.241 C 
ATOM      2  N   GLY A   5      -8.873   8.063   9.481  0.00  0.00    -0.295 N 
ATOM      3  H   GLY A   5      -9.219   8.988   9.808  0.00  0.00    +0.150 HD
ATOM      4  O   GLN A   4      -8.976   6.451   7.892  0.00  0.00    -0.273 OA
ENDROOT
BRANCH   2   5
ATOM      5  CA  GLY A   5      -7.877   7.340  10.274  0.00  0.00    +0.176 C 
BRANCH   5   6
ATOM      6  C   GLY A   5      -8.571   6.518  11.335  0.00  0.00    +0.243 C 
ATOM      7  N   ALA A   6      -7.769   5.842  12.156  0.00  0.00    -0.297 N 
ATOM      8  H   ALA A   6      -6.740   5.925  12.033  0.00  0.00    +0.150 HD
ATOM      9  O   GLY A   5      -9.791   6.521  11.433  0.00  0.00    -0.273 OA
BRANCH   7  10
ATOM     10  CA  ALA A   6      -8.284   4.989  13.221  0.00  0.00    +0.149 C 
ATOM     11  CB  ALA A   6      -7.137   4.239  13.858  0.00  0.00    +0.031 C 
BRANCH  10  12
ATOM     12  C   ALA A   6      -9.037   5.787  14.276  0.00  0.00    +0.241 C 
ATOM     13  O   ALA A   6      -9.967   5.264  14.894  0.00  0.00    -0.273 OA
ATOM     14  N   THR A   7      -8.649   7.051  14.464  0.00  0.00    -0.295 N 
ATOM     15  H   THR A   7      -7.985   7.474  13.785  0.00  0.00    +0.150 HD
BRANCH  14  16
ATOM     16  CA  THR A   7      -9.119   7.866  15.586  0.00  0.00    +0.176 C 
BRANCH  16  17
ATOM     17  C   THR A   7      -9.953   9.073  15.150  0.00  0.00    +0.243 C 
ATOM     18  O   THR A   7     -10.436   9.838  15.995  0.00  0.00    -0.273 OA
ATOM     19  N   GLY A   8     -10.119   9.256  13.842  0.00  0.00    -0.295 N 
ATOM     20  H   GLY A   8      -9.706   8.576  13.172  0.00  0.00    +0.150 HD
BRANCH  19  21
ATOM     21  CA  GLY A   8     -10.870  10.395  13.337  0.00  0.00    +0.176 C 
BRANCH  21  22
ATOM     22  C   GLY A   8     -10.528  10.624  11.880  0.00  0.00    +0.243 C 
ATOM     23  O   GLY A   8      -9.751   9.870  11.304  0.00  0.00    -0.273 OA
ATOM     24  N   GLY A   9     -11.083  11.674  11.296  0.00  0.00    -0.295 N 
ATOM     25  H   GLY A   9     -11.724  12.285  11.841  0.00  0.00    +0.150 HD
BRANCH  24  26
ATOM     26  CA  GLY A   9     -10.808  11.986   9.899  0.00  0.00    +0.176 C 
BRANCH  26  27
ATOM     27  C   GLY A   9     -10.542  13.453   9.693  0.00  0.00    +0.243 C 
ATOM     28  O   GLY A   9     -10.994  14.298  10.476  0.00  0.00    -0.273 OA
ATOM     29  N   LYS A  10      -9.812  13.774   8.633  0.00  0.00    -0.298 N 
ATOM     30  H   LYS A  10      -9.286  13.027   8.136  0.00  0.00    +0.150 HD
BRANCH  29  31
ATOM     31  CA  LYS A  10      -9.727  15.158   8.141  0.00  0.00    +0.137 C 
BRANCH  31  32
ATOM     32  C   LYS A  10      -9.042  15.143   6.802  0.00  0.00    +0.227 C 
ATOM     33  O   LYS A  10      -8.647  14.078   6.327  0.00  0.00    -0.286 OA
ENDBRANCH  31  32
BRANCH  31  34
ATOM     34  CB  LYS A  10      -9.050  16.121   9.127  0.00  0.00    +0.028 C 
BRANCH  34  35
ATOM     35  CG  LYS A  10      -7.584  15.867   9.321  0.00  0.00    -0.000 C 
BRANCH  35  36
ATOM     36  CD  LYS A  10      -6.957  16.778  10.406  0.00  0.00    -0.024 C 
BRANCH  36  37
ATOM     37  CE  LYS A  10      -6.722  18.184   9.904  0.00  0.00    -0.086 C 
BRANCH  37  38
ATOM     38  NZ  LYS A  10      -5.623  18.255   8.903  0.00  0.00    +0.380 N 
ATOM     39  HZ1 LYS A  10      -4.740  17.917   9.335  0.00  0.00    -0.089 HD
ATOM     40  HZ2 LYS A  10      -5.503  19.240   8.591  0.00  0.00    -0.089 HD
ATOM     41  HZ3 LYS A  10      -5.861  17.658   8.085  0.00  0.00    -0.089 HD
ENDBRANCH  37  38
ENDBRANCH  36  37
ENDBRANCH  35  36
ENDBRANCH  34  35
ENDBRANCH  31  34
ENDBRANCH  29  31
ENDBRANCH  26  27
ENDBRANCH  24  26
ENDBRANCH  21  22
ENDBRANCH  19  21
ENDBRANCH  16  17
BRANCH  16  42
ATOM     42  CB  THR A   7      -7.927   8.358  16.464  0.00  0.00    +0.137 C 
ATOM     43  CG2 THR A   7      -7.031   7.200  16.834  0.00  0.00    +0.034 C 
BRANCH  42  44
ATOM     44  OG1 THR A   7      -7.131   9.300  15.724  0.00  0.00    -0.382 OA
ATOM     45  HG1 THR A   7      -6.778   8.863  14.908  0.00  0.00    +0.210 HD
ENDBRANCH  42  44
ENDBRANCH  16  42
ENDBRANCH  14  16
ENDBRANCH  10  12
ENDBRANCH   7  10
ENDBRANCH   5   6
ENDBRANCH   2   5
BRANCH   1  46
ATOM     46  CA  GLN A   4     -10.309   8.430   7.591  0.00  0.00    +0.149 C 
BRANCH  46  49
ATOM     47  C   VAL A   3      -9.112  10.173   6.404  0.00  0.00    +0.241 C 
ATOM     48  O   VAL A   3      -9.217  10.944   7.350  0.00  0.00    -0.273 OA
ATOM     49  N   GLN A   4      -9.602   8.938   6.418  0.00  0.00    -0.297 N 
ATOM     50  H   GLN A   4      -9.481   8.327   5.585  0.00  0.00    +0.150 HD
BRANCH  47  51
ATOM     51  CA  VAL A   3      -8.396  10.622   5.141  0.00  0.00    +0.149 C 
BRANCH  51  53
ATOM     52  C   TRP A   2      -9.858  11.755   3.555  0.00  0.00    +0.241 C 
ATOM     53  N   VAL A   3      -9.089  11.818   4.643  0.00  0.00    -0.297 N 
ATOM     54  H   VAL A   3      -8.979  12.723   5.144  0.00  0.00    +0.150 HD
ATOM     55  O   TRP A   2      -9.982  10.717   2.896  0.00  0.00    -0.273 OA
BRANCH  52  56
ATOM     56  CA  TRP A   2     -10.577  13.047   3.134  0.00  0.00    +0.153 C 
BRANCH  56  59
ATOM     57  C   ALA A   1      -9.020  13.884   1.503  0.00  0.00    +0.238 C 
ATOM     58  O   ALA A   1      -8.249  14.344   2.367  0.00  0.00    -0.274 OA
ATOM     59  N   TRP A   2     -10.221  13.398   1.779  0.00  0.00    -0.297 N 
ATOM     60  H   TRP A   2     -10.913  13.268   1.014  0.00  0.00    +0.150 HD
BRANCH  57  61
ATOM     61  CA  ALA A   1      -8.640  13.887   0.046  0.00  0.00    +0.145 C 
ATOM     62  CB  ALA A   1      -7.910  12.584  -0.304  0.00  0.00    +0.028 C 
BRANCH  61  63
ATOM     63  N   ALA A   1      -7.794  15.045  -0.212  0.00  0.00    -0.238 NA
ATOM     64  H   ALA A   1      -6.951  15.193   0.378  0.00  0.00    +0.142 HD
ENDBRANCH  61  63
ENDBRANCH  57  61
ENDBRANCH  56  59
BRANCH  56  65
ATOM     65  CB  TRP A   2     -12.092  12.850   3.268  0.00  0.00    +0.057 C 
BRANCH  65  66
ATOM     66  CG  TRP A   2     -12.490  12.613   4.695  0.00  0.00    -0.002 A 
ATOM     67  CD2 TRP A   2     -12.859  13.602   5.650  0.00  0.00    +0.013 A 
ATOM     68  CE2 TRP A   2     -13.168  12.929   6.857  0.00  0.00    +0.056 A 
ATOM     69  CZ2 TRP A   2     -13.588  13.614   8.018  0.00  0.00    +0.017 A 
ATOM     70  CH2 TRP A   2     -13.711  14.977   7.936  0.00  0.00    +0.001 A 
ATOM     71  CZ3 TRP A   2     -13.429  15.676   6.737  0.00  0.00    +0.000 A 
ATOM     72  NE1 TRP A   2     -12.990  11.591   6.642  0.00  0.00    -0.352 N 
ATOM     73  HE1 TRP A   2     -13.144  10.840   7.345  0.00  0.00    +0.166 HD
ATOM     74  CE3 TRP A   2     -13.000  14.996   5.595  0.00  0.00    +0.001 A 
ATOM     75  CD1 TRP A   2     -12.574  11.400   5.344  0.00  0.00    +0.068 A 
ENDBRANCH  65  66
ENDBRANCH  56  65
ENDBRANCH  52  56
ENDBRANCH  51  53
BRANCH  51  76
ATOM     76  CB  VAL A   3      -6.916  10.929   5.482  0.00  0.00    +0.027 C 
ATOM     77  CG2 VAL A   3      -6.261   9.794   6.316  0.00  0.00    +0.002 C 
ATOM     78  CG1 VAL A   3      -6.127  11.186   4.218  0.00  0.00    +0.002 C 
ENDBRANCH  51  76
ENDBRANCH  47  51
ENDBRANCH  46  49
BRANCH  46  79
ATOM     79  CB  GLN A   4     -11.544   7.630   7.172  0.00  0.00    +0.039 C 
BRANCH  79  80
ATOM     80  CG  GLN A   4     -12.493   7.279   8.349  0.00  0.00    +0.087 C 
BRANCH  80  81
ATOM     81  CD  GLN A   4     -13.156   8.517   9.004  0.00  0.00    +0.219 C 
ATOM     82  NE2 GLN A   4     -13.252   8.495  10.327  0.00  0.00    -0.329 N 
ATOM     83 HE21 GLN A   4     -12.878   7.685  10.862  0.00  0.00    +0.145 HD
ATOM     84 HE22 GLN A   4     -13.701   9.287  10.829  0.00  0.00    +0.145 HD
ATOM     85  OE1 GLN A   4     -13.588   9.461   8.329  0.00  0.00    -0.275 OA
ENDBRANCH  80  81
ENDBRANCH  79  80
ENDBRANCH  46  79
ENDBRANCH   1  46
TORSDOF 33
REMARK  Name = ../refined-set-2016/3sm2/3sm2_pocket.pdb
REMARK  227 active torsions:
REMARK  status: ('A' for Active; 'I' for Inactive)
REMARK    1  A    between atoms: _2  and  _3
REMARK    2  A    between atoms: _8  and  _10
REMARK    3  A    between atoms: _10  and  _11
REMARK    4  A    between atoms: _10  and  _13
REMARK    5  A    between atoms: _13  and  _14
REMARK    6  A    between atoms: _17  and  _19
REMARK    7  A    between atoms: _19  and  _20
REMARK    8  A    between atoms: _19  and  _22
REMARK    9  A    between atoms: _25  and  _27
REMARK   10  A    between atoms: _27  and  _28
REMARK   11  A    between atoms: _27  and  _30
REMARK   12  A    between atoms: _30  and  _31
REMARK   13  A    between atoms: _34  and  _36
REMARK   14  A    between atoms: _36  and  _37
REMARK   15  A    between atoms: _36  and  _39
REMARK   16  A    between atoms: _39  and  _40
REMARK   17  A    between atoms: _43  and  _45
REMARK   18  A    between atoms: _45  and  _46
REMARK   19  A    between atoms: _48  and  _50
REMARK   20  A    between atoms: _50  and  _51
REMARK   21  A    between atoms: _54  and  _56
REMARK   22  A    between atoms: _56  and  _57
REMARK   23  A    between atoms: _56  and  _59
REMARK   24  A    between atoms: _59  and  _60
REMARK   25  A    between atoms: _60  and  _61
REMARK   26  A    between atoms: _66  and  _68
REMARK   27  A    between atoms: _68  and  _69
REMARK   28  A    between atoms: _68  and  _71
REMARK   29  A    between atoms: _71  and  _72
REMARK   30  A    between atoms: _77  and  _79
REMARK   31  A    between atoms: _79  and  _80
REMARK   32  A    between atoms: _79  and  _82
REMARK   33  A    between atoms: _82  and  _83
REMARK   34  A    between atoms: _85  and  _87
REMARK   35  A    between atoms: _87  and  _88
REMARK   36  A    between atoms: _87  and  _90
REMARK   37  A    between atoms: _93  and  _95
REMARK   38  A    between atoms: _95  and  _96
REMARK   39  A    between atoms: _95  and  _98
REMARK   40  A    between atoms: _98  and  _99
REMARK   41  A    between atoms: _102  and  _104
REMARK   42  A    between atoms: _104  and  _105
REMARK   43  A    between atoms: _104  and  _107
REMARK   44  A    between atoms: _107  and  _108
REMARK   45  A    between atoms: _118  and  _120
REMARK   46  A    between atoms: _120  and  _121
REMARK   47  A    between atoms: _120  and  _123
REMARK   48  A    between atoms: _126  and  _128
REMARK   49  A    between atoms: _128  and  _129
REMARK   50  A    between atoms: _128  and  _131
REMARK   51  A    between atoms: _131  and  _132
REMARK   52  A    between atoms: _132  and  _133
REMARK   53  A    between atoms: _138  and  _140
REMARK   54  A    between atoms: _140  and  _141
REMARK   55  A    between atoms: _143  and  _145
REMARK   56  A    between atoms: _145  and  _146
REMARK   57  A    between atoms: _149  and  _151
REMARK   58  A    between atoms: _151  and  _152
REMARK   59  A    between atoms: _151  and  _154
REMARK   60  A    between atoms: _154  and  _155
REMARK   61  A    between atoms: _158  and  _160
REMARK   62  A    between atoms: _160  and  _161
REMARK   63  A    between atoms: _163  and  _165
REMARK   64  A    between atoms: _165  and  _166
REMARK   65  A    between atoms: _165  and  _168
REMARK   66  A    between atoms: _168  and  _169
REMARK   67  A    between atoms: _174  and  _175
REMARK   68  A    between atoms: _177  and  _179
REMARK   69  A    between atoms: _179  and  _180
REMARK   70  A    between atoms: _179  and  _182
REMARK   71  A    between atoms: _182  and  _183
REMARK   72  A    between atoms: _193  and  _195
REMARK   73  A    between atoms: _195  and  _196
REMARK   74  A    between atoms: _195  and  _198
REMARK   75  A    between atoms: _198  and  _199
REMARK   76  A    between atoms: _202  and  _204
REMARK   77  A    between atoms: _204  and  _205
REMARK   78  A    between atoms: _204  and  _207
REMARK   79  A    between atoms: _210  and  _212
REMARK   80  A    between atoms: _212  and  _213
REMARK   81  A    between atoms: _212  and  _215
REMARK   82  A    between atoms: _215  and  _216
REMARK   83  A    between atoms: _219  and  _221
REMARK   84  A    between atoms: _221  and  _222
REMARK   85  A    between atoms: _221  and  _224
REMARK   86  A    between atoms: _227  and  _228
REMARK   87  A    between atoms: _233  and  _235
REMARK   88  A    between atoms: _235  and  _236
REMARK   89  A    between atoms: _235  and  _238
REMARK   90  A    between atoms: _238  and  _239
REMARK   91  A    between atoms: _244  and  _245
REMARK   92  A    between atoms: _248  and  _249
REMARK   93  A    between atoms: _254  and  _256
REMARK   94  A    between atoms: _256  and  _257
REMARK   95  A    between atoms: _256  and  _259
REMARK   96  A    between atoms: _259  and  _260
REMARK   97  A    between atoms: _263  and  _265
REMARK   98  A    between atoms: _265  and  _266
REMARK   99  A    between atoms: _268  and  _270
REMARK  100  A    between atoms: _270  and  _271
REMARK  101  A    between atoms: _270  and  _273
REMARK  102  A    between atoms: _273  and  _274
REMARK  103  A    between atoms: _274  and  _275
REMARK  104  A    between atoms: _275  and  _276
REMARK  105  A    between atoms: _285  and  _287
REMARK  106  A    between atoms: _287  and  _288
REMARK  107  A    between atoms: _287  and  _290
REMARK  108  A    between atoms: _290  and  _291
REMARK  109  A    between atoms: _295  and  _296
REMARK  110  A    between atoms: _301  and  _303
REMARK  111  A    between atoms: _303  and  _304
REMARK  112  A    between atoms: _303  and  _306
REMARK  113  A    between atoms: _306  and  _307
REMARK  114  A    between atoms: _310  and  _312
REMARK  115  A    between atoms: _312  and  _313
REMARK  116  A    between atoms: _312  and  _315
REMARK  117  A    between atoms: _318  and  _320
REMARK  118  A    between atoms: _320  and  _321
REMARK  119  A    between atoms: _320  and  _323
REMARK  120  A    between atoms: _323  and  _324
REMARK  121  A    between atoms: _327  and  _329
REMARK  122  A    between atoms: _329  and  _330
REMARK  123  A    between atoms: _329  and  _332
REMARK  124  A    between atoms: _332  and  _333
REMARK  125  A    between atoms: _336  and  _338
REMARK  126  A    between atoms: _338  and  _339
REMARK  127  A    between atoms: _341  and  _343
REMARK  128  A    between atoms: _343  and  _344
REMARK  129  A    between atoms: _347  and  _349
REMARK  130  A    between atoms: _349  and  _350
REMARK  131  A    between atoms: _349  and  _352
REMARK  132  A    between atoms: _352  and  _353
REMARK  133  A    between atoms: _353  and  _354
REMARK  134  A    between atoms: _359  and  _361
REMARK  135  A    between atoms: _361  and  _362
REMARK  136  A    between atoms: _361  and  _364
REMARK  137  A    between atoms: _364  and  _365
REMARK  138  A    between atoms: _370  and  _372
REMARK  139  A    between atoms: _372  and  _373
REMARK  140  A    between atoms: _372  and  _375
REMARK  141  A    between atoms: _375  and  _376
REMARK  142  A    between atoms: _378  and  _380
REMARK  143  A    between atoms: _380  and  _381
REMARK  144  A    between atoms: _380  and  _383
REMARK  145  A    between atoms: _386  and  _388
REMARK  146  A    between atoms: _388  and  _389
REMARK  147  A    between atoms: _392  and  _394
REMARK  148  A    between atoms: _394  and  _395
REMARK  149  A    between atoms: _394  and  _397
REMARK  150  A    between atoms: _397  and  _398
REMARK  151  A    between atoms: _408  and  _410
REMARK  152  A    between atoms: _410  and  _411
REMARK  153  A    between atoms: _410  and  _413
REMARK  154  A    between atoms: _416  and  _418
REMARK  155  A    between atoms: _418  and  _419
REMARK  156  A    between atoms: _418  and  _421
REMARK  157  A    between atoms: _421  and  _422
REMARK  158  A    between atoms: _422  and  _423
REMARK  159  A    between atoms: _428  and  _430
REMARK  160  A    between atoms: _430  and  _431
REMARK  161  A    between atoms: _433  and  _435
REMARK  162  A    between atoms: _435  and  _436
REMARK  163  A    between atoms: _439  and  _441
REMARK  164  A    between atoms: _441  and  _442
REMARK  165  A    between atoms: _441  and  _444
REMARK  166  A    between atoms: _444  and  _445
REMARK  167  A    between atoms: _448  and  _450
REMARK  168  A    between atoms: _450  and  _451
REMARK  169  A    between atoms: _453  and  _455
REMARK  170  A    between atoms: _455  and  _456
REMARK  171  A    between atoms: _458  and  _460
REMARK  172  A    between atoms: _460  and  _461
REMARK  173  A    between atoms: _460  and  _463
REMARK  174  A    between atoms: _463  and  _464
REMARK  175  A    between atoms: _464  and  _465
REMARK  176  A    between atoms: _465  and  _466
REMARK  177  A    between atoms: _466  and  _467
REMARK  178  A    between atoms: _471  and  _473
REMARK  179  A    between atoms: _473  and  _474
REMARK  180  A    between atoms: _473  and  _476
REMARK  181  A    between atoms: _476  and  _477
REMARK  182  A    between atoms: _482  and  _483
REMARK  183  A    between atoms: _485  and  _487
REMARK  184  A    between atoms: _487  and  _488
REMARK  185  A    between atoms: _487  and  _490
REMARK  186  A    between atoms: _490  and  _491
REMARK  187  A    between atoms: _501  and  _503
REMARK  188  A    between atoms: _503  and  _504
REMARK  189  A    between atoms: _503  and  _506
REMARK  190  A    between atoms: _506  and  _507
REMARK  191  A    between atoms: _510  and  _512
REMARK  192  A    between atoms: _512  and  _513
REMARK  193  A    between atoms: _512  and  _515
REMARK  194  A    between atoms: _518  and  _520
REMARK  195  A    between atoms: _520  and  _521
REMARK  196  A    between atoms: _520  and  _523
REMARK  197  A    between atoms: _523  and  _524
REMARK  198  A    between atoms: _527  and  _529
REMARK  199  A    between atoms: _529  and  _530
REMARK  200  A    between atoms: _529  and  _532
REMARK  201  A    between atoms: _535  and  _536
REMARK  202  A    between atoms: _541  and  _543
REMARK  203  A    between atoms: _543  and  _544
REMARK  204  A    between atoms: _543  and  _546
REMARK  205  A    between atoms: _546  and  _547
REMARK  206  A    between atoms: _552  and  _553
REMARK  207  A    between atoms: _556  and  _557
REMARK  208  A    between atoms: _562  and  _564
REMARK  209  A    between atoms: _564  and  _565
REMARK  210  A    between atoms: _564  and  _567
REMARK  211  A    between atoms: _567  and  _568
REMARK  212  A    between atoms: _571  and  _573
REMARK  213  A    between atoms: _573  and  _574
REMARK  214  A    between atoms: _573  and  _576
REMARK  215  A    between atoms: _576  and  _577
REMARK  216  A    between atoms: _580  and  _582
REMARK  217  A    between atoms: _582  and  _583
REMARK  218  A    between atoms: _585  and  _587
REMARK  219  A    between atoms: _587  and  _588
REMARK  220  A    between atoms: _587  and  _590
REMARK  221  A    between atoms: _590  and  _591
REMARK  222  A    between atoms: _591  and  _592
REMARK  223  A    between atoms: _592  and  _593
REMARK  224  A    between atoms: _602  and  _604
REMARK  225  A    between atoms: _604  and  _605
REMARK  226  A    between atoms: _604  and  _607
REMARK  227  A    between atoms: _607  and  _608
REMARK                            x       y       z     vdW  Elec       q    Type
REMARK                         _______ _______ _______ _____ _____    ______ ____
ROOT
ATOM      1  CG  TYR A   1      -4.165  14.971   5.435  0.00  0.00    -0.020 A 
ATOM      2  CD2 TYR A   1      -3.289  15.652   6.291  0.00  0.00    -0.001 A 
ATOM      3  CE2 TYR A   1      -3.380  15.524   7.670  0.00  0.00    +0.036 A 
ATOM      4  CZ  TYR A   1      -4.348  14.693   8.200  0.00  0.00    +0.134 A 
ATOM      5  CE1 TYR A   1      -5.232  14.019   7.360  0.00  0.00    +0.036 A 
ATOM      6  CD1 TYR A   1      -5.146  14.178   5.989  0.00  0.00    -0.001 A 
ENDROOT
BRANCH   4   7
ATOM      7  OH  TYR A   1      -4.398  14.585   9.581  0.00  0.00    -0.506 OA
ATOM      8  HH  TYR A   1      -3.684  15.143   9.981  0.00  0.00    +0.292 HD
ENDBRANCH   4   7
BRANCH   1   9
ATOM      9  CB  TYR A   1      -4.063  15.151   3.962  0.00  0.00    +0.051 C 
BRANCH   9  10
ATOM     10  CA  TYR A   1      -4.903  16.336   3.466  0.00  0.00    +0.137 C 
BRANCH  10  11
ATOM     11  N   TYR A   1      -6.318  16.105   3.712  0.00  0.00    -0.239 NA
ATOM     12  H   TYR A   1      -6.837  15.470   3.072  0.00  0.00    +0.142 HD
ENDBRANCH  10  11
BRANCH  10  13
ATOM     13  C   TYR A   1      -4.690  16.588   1.988  0.00  0.00    +0.224 C 
ATOM     14  O   TYR A   1      -5.453  16.103   1.145  0.00  0.00    -0.287 OA
ENDBRANCH  10  13
ENDBRANCH   9  10
ENDBRANCH   1   9
TORSDOF 5
REMARK  Name = ../refined-set-2016/3sm2/3sm2_pocket.pdb
REMARK  227 active torsions:
REMARK  status: ('A' for Active; 'I' for Inactive)
REMARK    1  A    between atoms: _2  and  _3
REMARK    2  A    between atoms: _8  and  _10
REMARK    3  A    between atoms: _10  and  _11
REMARK    4  A    between atoms: _10  and  _13
REMARK    5  A    between atoms: _13  and  _14
REMARK    6  A    between atoms: _17  and  _19
REMARK    7  A    between atoms: _19  and  _20
REMARK    8  A    between atoms: _19  and  _22
REMARK    9  A    between atoms: _25  and  _27
REMARK   10  A    between atoms: _27  and  _28
REMARK   11  A    between atoms: _27  and  _30
REMARK   12  A    between atoms: _30  and  _31
REMARK   13  A    between atoms: _34  and  _36
REMARK   14  A    between atoms: _36  and  _37
REMARK   15  A    between atoms: _36  and  _39
REMARK   16  A    between atoms: _39  and  _40
REMARK   17  A    between atoms: _43  and  _45
REMARK   18  A    between atoms: _45  and  _46
REMARK   19  A    between atoms: _48  and  _50
REMARK   20  A    between atoms: _50  and  _51
REMARK   21  A    between atoms: _54  and  _56
REMARK   22  A    between atoms: _56  and  _57
REMARK   23  A    between atoms: _56  and  _59
REMARK   24  A    between atoms: _59  and  _60
REMARK   25  A    between atoms: _60  and  _61
REMARK   26  A    between atoms: _66  and  _68
REMARK   27  A    between atoms: _68  and  _69
REMARK   28  A    between atoms: _68  and  _71
REMARK   29  A    between atoms: _71  and  _72
REMARK   30  A    between atoms: _77  and  _79
REMARK   31  A    between atoms: _79  and  _80
REMARK   32  A    between atoms: _79  and  _82
REMARK   33  A    between atoms: _82  and  _83
REMARK   34  A    between atoms: _85  and  _87
REMARK   35  A    between atoms: _87  and  _88
REMARK   36  A    between atoms: _87  and  _90
REMARK   37  A    between atoms: _93  and  _95
REMARK   38  A    between atoms: _95  and  _96
REMARK   39  A    between atoms: _95  and  _98
REMARK   40  A    between atoms: _98  and  _99
REMARK   41  A    between atoms: _102  and  _104
REMARK   42  A    between atoms: _104  and  _105
REMARK   43  A    between atoms: _104  and  _107
REMARK   44  A    between atoms: _107  and  _108
REMARK   45  A    between atoms: _118  and  _120
REMARK   46  A    between atoms: _120  and  _121
REMARK   47  A    between atoms: _120  and  _123
REMARK   48  A    between atoms: _126  and  _128
REMARK   49  A    between atoms: _128  and  _129
REMARK   50  A    between atoms: _128  and  _131
REMARK   51  A    between atoms: _131  and  _132
REMARK   52  A    between atoms: _132  and  _133
REMARK   53  A    between atoms: _138  and  _140
REMARK   54  A    between atoms: _140  and  _141
REMARK   55  A    between atoms: _143  and  _145
REMARK   56  A    between atoms: _145  and  _146
REMARK   57  A    between atoms: _149  and  _151
REMARK   58  A    between atoms: _151  and  _152
REMARK   59  A    between atoms: _151  and  _154
REMARK   60  A    between atoms: _154  and  _155
REMARK   61  A    between atoms: _158  and  _160
REMARK   62  A    between atoms: _160  and  _161
REMARK   63  A    between atoms: _163  and  _165
REMARK   64  A    between atoms: _165  and  _166
REMARK   65  A    between atoms: _165  and  _168
REMARK   66  A    between atoms: _168  and  _169
REMARK   67  A    between atoms: _174  and  _175
REMARK   68  A    between atoms: _177  and  _179
REMARK   69  A    between atoms: _179  and  _180
REMARK   70  A    between atoms: _179  and  _182
REMARK   71  A    between atoms: _182  and  _183
REMARK   72  A    between atoms: _193  and  _195
REMARK   73  A    between atoms: _195  and  _196
REMARK   74  A    between atoms: _195  and  _198
REMARK   75  A    between atoms: _198  and  _199
REMARK   76  A    between atoms: _202  and  _204
REMARK   77  A    between atoms: _204  and  _205
REMARK   78  A    between atoms: _204  and  _207
REMARK   79  A    between atoms: _210  and  _212
REMARK   80  A    between atoms: _212  and  _213
REMARK   81  A    between atoms: _212  and  _215
REMARK   82  A    between atoms: _215  and  _216
REMARK   83  A    between atoms: _219  and  _221
REMARK   84  A    between atoms: _221  and  _222
REMARK   85  A    between atoms: _221  and  _224
REMARK   86  A    between atoms: _227  and  _228
REMARK   87  A    between atoms: _233  and  _235
REMARK   88  A    between atoms: _235  and  _236
REMARK   89  A    between atoms: _235  and  _238
REMARK   90  A    between atoms: _238  and  _239
REMARK   91  A    between atoms: _244  and  _245
REMARK   92  A    between atoms: _248  and  _249
REMARK   93  A    between atoms: _254  and  _256
REMARK   94  A    between atoms: _256  and  _257
REMARK   95  A    between atoms: _256  and  _259
REMARK   96  A    between atoms: _259  and  _260
REMARK   97  A    between atoms: _263  and  _265
REMARK   98  A    between atoms: _265  and  _266
REMARK   99  A    between atoms: _268  and  _270
REMARK  100  A    between atoms: _270  and  _271
REMARK  101  A    between atoms: _270  and  _273
REMARK  102  A    between atoms: _273  and  _274
REMARK  103  A    between atoms: _274  and  _275
REMARK  104  A    between atoms: _275  and  _276
REMARK  105  A    between atoms: _285  and  _287
REMARK  106  A    between atoms: _287  and  _288
REMARK  107  A    between atoms: _287  and  _290
REMARK  108  A    between atoms: _290  and  _291
REMARK  109  A    between atoms: _295  and  _296
REMARK  110  A    between atoms: _301  and  _303
REMARK  111  A    between atoms: _303  and  _304
REMARK  112  A    between atoms: _303  and  _306
REMARK  113  A    between atoms: _306  and  _307
REMARK  114  A    between atoms: _310  and  _312
REMARK  115  A    between atoms: _312  and  _313
REMARK  116  A    between atoms: _312  and  _315
REMARK  117  A    between atoms: _318  and  _320
REMARK  118  A    between atoms: _320  and  _321
REMARK  119  A    between atoms: _320  and  _323
REMARK  120  A    between atoms: _323  and  _324
REMARK  121  A    between atoms: _327  and  _329
REMARK  122  A    between atoms: _329  and  _330
REMARK  123  A    between atoms: _329  and  _332
REMARK  124  A    between atoms: _332  and  _333
REMARK  125  A    between atoms: _336  and  _338
REMARK  126  A    between atoms: _338  and  _339
REMARK  127  A    between atoms: _341  and  _343
REMARK  128  A    between atoms: _343  and  _344
REMARK  129  A    between atoms: _347  and  _349
REMARK  130  A    between atoms: _349  and  _350
REMARK  131  A    between atoms: _349  and  _352
REMARK  132  A    between atoms: _352  and  _353
REMARK  133  A    between atoms: _353  and  _354
REMARK  134  A    between atoms: _359  and  _361
REMARK  135  A    between atoms: _361  and  _362
REMARK  136  A    between atoms: _361  and  _364
REMARK  137  A    between atoms: _364  and  _365
REMARK  138  A    between atoms: _370  and  _372
REMARK  139  A    between atoms: _372  and  _373
REMARK  140  A    between atoms: _372  and  _375
REMARK  141  A    between atoms: _375  and  _376
REMARK  142  A    between atoms: _378  and  _380
REMARK  143  A    between atoms: _380  and  _381
REMARK  144  A    between atoms: _380  and  _383
REMARK  145  A    between atoms: _386  and  _388
REMARK  146  A    between atoms: _388  and  _389
REMARK  147  A    between atoms: _392  and  _394
REMARK  148  A    between atoms: _394  and  _395
REMARK  149  A    between atoms: _394  and  _397
REMARK  150  A    between atoms: _397  and  _398
REMARK  151  A    between atoms: _408  and  _410
REMARK  152  A    between atoms: _410  and  _411
REMARK  153  A    between atoms: _410  and  _413
REMARK  154  A    between atoms: _416  and  _418
REMARK  155  A    between atoms: _418  and  _419
REMARK  156  A    between atoms: _418  and  _421
REMARK  157  A    between atoms: _421  and  _422
REMARK  158  A    between atoms: _422  and  _423
REMARK  159  A    between atoms: _428  and  _430
REMARK  160  A    between atoms: _430  and  _431
REMARK  161  A    between atoms: _433  and  _435
REMARK  162  A    between atoms: _435  and  _436
REMARK  163  A    between atoms: _439  and  _441
REMARK  164  A    between atoms: _441  and  _442
REMARK  165  A    between atoms: _441  and  _444
REMARK  166  A    between atoms: _444  and  _445
REMARK  167  A    between atoms: _448  and  _450
REMARK  168  A    between atoms: _450  and  _451
REMARK  169  A    between atoms: _453  and  _455
REMARK  170  A    between atoms: _455  and  _456
REMARK  171  A    between atoms: _458  and  _460
REMARK  172  A    between atoms: _460  and  _461
REMARK  173  A    between atoms: _460  and  _463
REMARK  174  A    between atoms: _463  and  _464
REMARK  175  A    between atoms: _464  and  _465
REMARK  176  A    between atoms: _465  and  _466
REMARK  177  A    between atoms: _466  and  _467
REMARK  178  A    between atoms: _471  and  _473
REMARK  179  A    between atoms: _473  and  _474
REMARK  180  A    between atoms: _473  and  _476
REMARK  181  A    between atoms: _476  and  _477
REMARK  182  A    between atoms: _482  and  _483
REMARK  183  A    between atoms: _485  and  _487
REMARK  184  A    between atoms: _487  and  _488
REMARK  185  A    between atoms: _487  and  _490
REMARK  186  A    between atoms: _490  and  _491
REMARK  187  A    between atoms: _501  and  _503
REMARK  188  A    between atoms: _503  and  _504
REMARK  189  A    between atoms: _503  and  _506
REMARK  190  A    between atoms: _506  and  _507
REMARK  191  A    between atoms: _510  and  _512
REMARK  192  A    between atoms: _512  and  _513
REMARK  193  A    between atoms: _512  and  _515
REMARK  194  A    between atoms: _518  and  _520
REMARK  195  A    between atoms: _520  and  _521
REMARK  196  A    between atoms: _520  and  _523
REMARK  197  A    between atoms: _523  and  _524
REMARK  198  A    between atoms: _527  and  _529
REMARK  199  A    between atoms: _529  and  _530
REMARK  200  A    between atoms: _529  and  _532
REMARK  201  A    between atoms: _535  and  _536
REMARK  202  A    between atoms: _541  and  _543
REMARK  203  A    between atoms: _543  and  _544
REMARK  204  A    between atoms: _543  and  _546
REMARK  205  A    between atoms: _546  and  _547
REMARK  206  A    between atoms: _552  and  _553
REMARK  207  A    between atoms: _556  and  _557
REMARK  208  A    between atoms: _562  and  _564
REMARK  209  A    between atoms: _564  and  _565
REMARK  210  A    between atoms: _564  and  _567
REMARK  211  A    between atoms: _567  and  _568
REMARK  212  A    between atoms: _571  and  _573
REMARK  213  A    between atoms: _573  and  _574
REMARK  214  A    between atoms: _573  and  _576
REMARK  215  A    between atoms: _576  and  _577
REMARK  216  A    between atoms: _580  and  _582
REMARK  217  A    between atoms: _582  and  _583
REMARK  218  A    between atoms: _585  and  _587
REMARK  219  A    between atoms: _587  and  _588
REMARK  220  A    between atoms: _587  and  _590
REMARK  221  A    between atoms: _590  and  _591
REMARK  222  A    between atoms: _591  and  _592
REMARK  223  A    between atoms: _592  and  _593
REMARK  224  A    between atoms: _602  and  _604
REMARK  225  A    between atoms: _604  and  _605
REMARK  226  A    between atoms: _604  and  _607
REMARK  227  A    between atoms: _607  and  _608
REMARK                            x       y       z     vdW  Elec       q    Type
REMARK                         _______ _______ _______ _____ _____    ______ ____
ROOT
ATOM      1  CG  TRP A   1      -4.222  14.407  -3.750  0.00  0.00    -0.002 A 
ATOM      2  CD2 TRP A   1      -4.134  12.983  -3.651  0.00  0.00    +0.013 A 
ATOM      3  CE2 TRP A   1      -5.448  12.494  -3.493  0.00  0.00    +0.056 A 
ATOM      4  CZ2 TRP A   1      -5.727  11.129  -3.352  0.00  0.00    +0.017 A 
ATOM      5  CH2 TRP A   1      -4.682  10.257  -3.380  0.00  0.00    +0.001 A 
ATOM      6  CZ3 TRP A   1      -3.353  10.710  -3.510  0.00  0.00    +0.000 A 
ATOM      7  NE1 TRP A   1      -6.293  13.578  -3.526  0.00  0.00    -0.352 N 
ATOM      8  HE1 TRP A   1      -7.329  13.540  -3.441  0.00  0.00    +0.166 HD
ATOM      9  CE3 TRP A   1      -3.070  12.071  -3.667  0.00  0.00    +0.001 A 
ATOM     10  CD1 TRP A   1      -5.547  14.719  -3.690  0.00  0.00    +0.068 A 
ENDROOT
BRANCH   1  11
ATOM     11  CB  TRP A   1      -3.094  15.338  -3.938  0.00  0.00    +0.053 C 
BRANCH  11  12
ATOM     12  CA  TRP A   1      -2.265  15.593  -2.689  0.00  0.00    +0.137 C 
BRANCH  12  13
ATOM     13  N   TRP A   1      -3.018  16.409  -1.751  0.00  0.00    -0.239 NA
ATOM     14  H   TRP A   1      -3.864  16.913  -2.087  0.00  0.00    +0.142 HD
ENDBRANCH  12  13
BRANCH  12  15
ATOM     15  C   TRP A   1      -1.024  16.341  -3.137  0.00  0.00    +0.224 C 
ATOM     16  O   TRP A   1      -1.062  17.568  -3.333  0.00  0.00    -0.287 OA
ENDBRANCH  12  15
ENDBRANCH  11  12
ENDBRANCH   1  11
TORSDOF 4
REMARK  Name = ../refined-set-2016/3sm2/3sm2_pocket.pdb
REMARK  227 active torsions:
REMARK  status: ('A' for Active; 'I' for Inactive)
REMARK    1  A    between atoms: _2  and  _3
REMARK    2  A    between atoms: _8  and  _10
REMARK    3  A    between atoms: _10  and  _11
REMARK    4  A    between atoms: _10  and  _13
REMARK    5  A    between atoms: _13  and  _14
REMARK    6  A    between atoms: _17  and  _19
REMARK    7  A    between atoms: _19  and  _20
REMARK    8  A    between atoms: _19  and  _22
REMARK    9  A    between atoms: _25  and  _27
REMARK   10  A    between atoms: _27  and  _28
REMARK   11  A    between atoms: _27  and  _30
REMARK   12  A    between atoms: _30  and  _31
REMARK   13  A    between atoms: _34  and  _36
REMARK   14  A    between atoms: _36  and  _37
REMARK   15  A    between atoms: _36  and  _39
REMARK   16  A    between atoms: _39  and  _40
REMARK   17  A    between atoms: _43  and  _45
REMARK   18  A    between atoms: _45  and  _46
REMARK   19  A    between atoms: _48  and  _50
REMARK   20  A    between atoms: _50  and  _51
REMARK   21  A    between atoms: _54  and  _56
REMARK   22  A    between atoms: _56  and  _57
REMARK   23  A    between atoms: _56  and  _59
REMARK   24  A    between atoms: _59  and  _60
REMARK   25  A    between atoms: _60  and  _61
REMARK   26  A    between atoms: _66  and  _68
REMARK   27  A    between atoms: _68  and  _69
REMARK   28  A    between atoms: _68  and  _71
REMARK   29  A    between atoms: _71  and  _72
REMARK   30  A    between atoms: _77  and  _79
REMARK   31  A    between atoms: _79  and  _80
REMARK   32  A    between atoms: _79  and  _82
REMARK   33  A    between atoms: _82  and  _83
REMARK   34  A    between atoms: _85  and  _87
REMARK   35  A    between atoms: _87  and  _88
REMARK   36  A    between atoms: _87  and  _90
REMARK   37  A    between atoms: _93  and  _95
REMARK   38  A    between atoms: _95  and  _96
REMARK   39  A    between atoms: _95  and  _98
REMARK   40  A    between atoms: _98  and  _99
REMARK   41  A    between atoms: _102  and  _104
REMARK   42  A    between atoms: _104  and  _105
REMARK   43  A    between atoms: _104  and  _107
REMARK   44  A    between atoms: _107  and  _108
REMARK   45  A    between atoms: _118  and  _120
REMARK   46  A    between atoms: _120  and  _121
REMARK   47  A    between atoms: _120  and  _123
REMARK   48  A    between atoms: _126  and  _128
REMARK   49  A    between atoms: _128  and  _129
REMARK   50  A    between atoms: _128  and  _131
REMARK   51  A    between atoms: _131  and  _132
REMARK   52  A    between atoms: _132  and  _133
REMARK   53  A    between atoms: _138  and  _140
REMARK   54  A    between atoms: _140  and  _141
REMARK   55  A    between atoms: _143  and  _145
REMARK   56  A    between atoms: _145  and  _146
REMARK   57  A    between atoms: _149  and  _151
REMARK   58  A    between atoms: _151  and  _152
REMARK   59  A    between atoms: _151  and  _154
REMARK   60  A    between atoms: _154  and  _155
REMARK   61  A    between atoms: _158  and  _160
REMARK   62  A    between atoms: _160  and  _161
REMARK   63  A    between atoms: _163  and  _165
REMARK   64  A    between atoms: _165  and  _166
REMARK   65  A    between atoms: _165  and  _168
REMARK   66  A    between atoms: _168  and  _169
REMARK   67  A    between atoms: _174  and  _175
REMARK   68  A    between atoms: _177  and  _179
REMARK   69  A    between atoms: _179  and  _180
REMARK   70  A    between atoms: _179  and  _182
REMARK   71  A    between atoms: _182  and  _183
REMARK   72  A    between atoms: _193  and  _195
REMARK   73  A    between atoms: _195  and  _196
REMARK   74  A    between atoms: _195  and  _198
REMARK   75  A    between atoms: _198  and  _199
REMARK   76  A    between atoms: _202  and  _204
REMARK   77  A    between atoms: _204  and  _205
REMARK   78  A    between atoms: _204  and  _207
REMARK   79  A    between atoms: _210  and  _212
REMARK   80  A    between atoms: _212  and  _213
REMARK   81  A    between atoms: _212  and  _215
REMARK   82  A    between atoms: _215  and  _216
REMARK   83  A    between atoms: _219  and  _221
REMARK   84  A    between atoms: _221  and  _222
REMARK   85  A    between atoms: _221  and  _224
REMARK   86  A    between atoms: _227  and  _228
REMARK   87  A    between atoms: _233  and  _235
REMARK   88  A    between atoms: _235  and  _236
REMARK   89  A    between atoms: _235  and  _238
REMARK   90  A    between atoms: _238  and  _239
REMARK   91  A    between atoms: _244  and  _245
REMARK   92  A    between atoms: _248  and  _249
REMARK   93  A    between atoms: _254  and  _256
REMARK   94  A    between atoms: _256  and  _257
REMARK   95  A    between atoms: _256  and  _259
REMARK   96  A    between atoms: _259  and  _260
REMARK   97  A    between atoms: _263  and  _265
REMARK   98  A    between atoms: _265  and  _266
REMARK   99  A    between atoms: _268  and  _270
REMARK  100  A    between atoms: _270  and  _271
REMARK  101  A    between atoms: _270  and  _273
REMARK  102  A    between atoms: _273  and  _274
REMARK  103  A    between atoms: _274  and  _275
REMARK  104  A    between atoms: _275  and  _276
REMARK  105  A    between atoms: _285  and  _287
REMARK  106  A    between atoms: _287  and  _288
REMARK  107  A    between atoms: _287  and  _290
REMARK  108  A    between atoms: _290  and  _291
REMARK  109  A    between atoms: _295  and  _296
REMARK  110  A    between atoms: _301  and  _303
REMARK  111  A    between atoms: _303  and  _304
REMARK  112  A    between atoms: _303  and  _306
REMARK  113  A    between atoms: _306  and  _307
REMARK  114  A    between atoms: _310  and  _312
REMARK  115  A    between atoms: _312  and  _313
REMARK  116  A    between atoms: _312  and  _315
REMARK  117  A    between atoms: _318  and  _320
REMARK  118  A    between atoms: _320  and  _321
REMARK  119  A    between atoms: _320  and  _323
REMARK  120  A    between atoms: _323  and  _324
REMARK  121  A    between atoms: _327  and  _329
REMARK  122  A    between atoms: _329  and  _330
REMARK  123  A    between atoms: _329  and  _332
REMARK  124  A    between atoms: _332  and  _333
REMARK  125  A    between atoms: _336  and  _338
REMARK  126  A    between atoms: _338  and  _339
REMARK  127  A    between atoms: _341  and  _343
REMARK  128  A    between atoms: _343  and  _344
REMARK  129  A    between atoms: _347  and  _349
REMARK  130  A    between atoms: _349  and  _350
REMARK  131  A    between atoms: _349  and  _352
REMARK  132  A    between atoms: _352  and  _353
REMARK  133  A    between atoms: _353  and  _354
REMARK  134  A    between atoms: _359  and  _361
REMARK  135  A    between atoms: _361  and  _362
REMARK  136  A    between atoms: _361  and  _364
REMARK  137  A    between atoms: _364  and  _365
REMARK  138  A    between atoms: _370  and  _372
REMARK  139  A    between atoms: _372  and  _373
REMARK  140  A    between atoms: _372  and  _375
REMARK  141  A    between atoms: _375  and  _376
REMARK  142  A    between atoms: _378  and  _380
REMARK  143  A    between atoms: _380  and  _381
REMARK  144  A    between atoms: _380  and  _383
REMARK  145  A    between atoms: _386  and  _388
REMARK  146  A    between atoms: _388  and  _389
REMARK  147  A    between atoms: _392  and  _394
REMARK  148  A    between atoms: _394  and  _395
REMARK  149  A    between atoms: _394  and  _397
REMARK  150  A    between atoms: _397  and  _398
REMARK  151  A    between atoms: _408  and  _410
REMARK  152  A    between atoms: _410  and  _411
REMARK  153  A    between atoms: _410  and  _413
REMARK  154  A    between atoms: _416  and  _418
REMARK  155  A    between atoms: _418  and  _419
REMARK  156  A    between atoms: _418  and  _421
REMARK  157  A    between atoms: _421  and  _422
REMARK  158  A    between atoms: _422  and  _423
REMARK  159  A    between atoms: _428  and  _430
REMARK  160  A    between atoms: _430  and  _431
REMARK  161  A    between atoms: _433  and  _435
REMARK  162  A    between atoms: _435  and  _436
REMARK  163  A    between atoms: _439  and  _441
REMARK  164  A    between atoms: _441  and  _442
REMARK  165  A    between atoms: _441  and  _444
REMARK  166  A    between atoms: _444  and  _445
REMARK  167  A    between atoms: _448  and  _450
REMARK  168  A    between atoms: _450  and  _451
REMARK  169  A    between atoms: _453  and  _455
REMARK  170  A    between atoms: _455  and  _456
REMARK  171  A    between atoms: _458  and  _460
REMARK  172  A    between atoms: _460  and  _461
REMARK  173  A    between atoms: _460  and  _463
REMARK  174  A    between atoms: _463  and  _464
REMARK  175  A    between atoms: _464  and  _465
REMARK  176  A    between atoms: _465  and  _466
REMARK  177  A    between atoms: _466  and  _467
REMARK  178  A    between atoms: _471  and  _473
REMARK  179  A    between atoms: _473  and  _474
REMARK  180  A    between atoms: _473  and  _476
REMARK  181  A    between atoms: _476  and  _477
REMARK  182  A    between atoms: _482  and  _483
REMARK  183  A    between atoms: _485  and  _487
REMARK  184  A    between atoms: _487  and  _488
REMARK  185  A    between atoms: _487  and  _490
REMARK  186  A    between atoms: _490  and  _491
REMARK  187  A    between atoms: _501  and  _503
REMARK  188  A    between atoms: _503  and  _504
REMARK  189  A    between atoms: _503  and  _506
REMARK  190  A    between atoms: _506  and  _507
REMARK  191  A    between atoms: _510  and  _512
REMARK  192  A    between atoms: _512  and  _513
REMARK  193  A    between atoms: _512  and  _515
REMARK  194  A    between atoms: _518  and  _520
REMARK  195  A    between atoms: _520  and  _521
REMARK  196  A    between atoms: _520  and  _523
REMARK  197  A    between atoms: _523  and  _524
REMARK  198  A    between atoms: _527  and  _529
REMARK  199  A    between atoms: _529  and  _530
REMARK  200  A    between atoms: _529  and  _532
REMARK  201  A    between atoms: _535  and  _536
REMARK  202  A    between atoms: _541  and  _543
REMARK  203  A    between atoms: _543  and  _544
REMARK  204  A    between atoms: _543  and  _546
REMARK  205  A    between atoms: _546  and  _547
REMARK  206  A    between atoms: _552  and  _553
REMARK  207  A    between atoms: _556  and  _557
REMARK  208  A    between atoms: _562  and  _564
REMARK  209  A    between atoms: _564  and  _565
REMARK  210  A    between atoms: _564  and  _567
REMARK  211  A    between atoms: _567  and  _568
REMARK  212  A    between atoms: _571  and  _573
REMARK  213  A    between atoms: _573  and  _574
REMARK  214  A    between atoms: _573  and  _576
REMARK  215  A    between atoms: _576  and  _577
REMARK  216  A    between atoms: _580  and  _582
REMARK  217  A    between atoms: _582  and  _583
REMARK  218  A    between atoms: _585  and  _587
REMARK  219  A    between atoms: _587  and  _588
REMARK  220  A    between atoms: _587  and  _590
REMARK  221  A    between atoms: _590  and  _591
REMARK  222  A    between atoms: _591  and  _592
REMARK  223  A    between atoms: _592  and  _593
REMARK  224  A    between atoms: _602  and  _604
REMARK  225  A    between atoms: _604  and  _605
REMARK  226  A    between atoms: _604  and  _607
REMARK  227  A    between atoms: _607  and  _608
REMARK                            x       y       z     vdW  Elec       q    Type
REMARK                         _______ _______ _______ _____ _____    ______ ____
ROOT
ATOM      1  CA  LEU A   1      -1.058  12.363   0.199  0.00  0.00    +0.133 C 
ENDROOT
BRANCH   1   2
ATOM      2  N   LEU A   1      -0.441  11.437  -0.742  0.00  0.00    -0.239 NA
ATOM      3  H   LEU A   1      -0.487  10.410  -0.582  0.00  0.00    +0.142 HD
ENDBRANCH   1   2
BRANCH   1   4
ATOM      4  C   LEU A   1       0.010  12.855   1.159  0.00  0.00    +0.224 C 
ATOM      5  O   LEU A   1       0.827  12.062   1.650  0.00  0.00    -0.287 OA
ENDBRANCH   1   4
BRANCH   1   6
ATOM      6  CB  LEU A   1      -2.151  11.664   1.018  0.00  0.00    +0.025 C 
BRANCH   6   7
ATOM      7  CG  LEU A   1      -3.442  11.344   0.277  0.00  0.00    +0.002 C 
ATOM      8  CD2 LEU A   1      -4.256  10.359   1.096  0.00  0.00    +0.000 C 
ATOM      9  CD1 LEU A   1      -4.203  12.650  -0.012  0.00  0.00    +0.000 C 
ENDBRANCH   6   7
ENDBRANCH   1   6
TORSDOF 4
REMARK  Name = ../refined-set-2016/3sm2/3sm2_pocket.pdb
REMARK  227 active torsions:
REMARK  status: ('A' for Active; 'I' for Inactive)
REMARK    1  A    between atoms: _2  and  _3
REMARK    2  A    between atoms: _8  and  _10
REMARK    3  A    between atoms: _10  and  _11
REMARK    4  A    between atoms: _10  and  _13
REMARK    5  A    between atoms: _13  and  _14
REMARK    6  A    between atoms: _17  and  _19
REMARK    7  A    between atoms: _19  and  _20
REMARK    8  A    between atoms: _19  and  _22
REMARK    9  A    between atoms: _25  and  _27
REMARK   10  A    between atoms: _27  and  _28
REMARK   11  A    between atoms: _27  and  _30
REMARK   12  A    between atoms: _30  and  _31
REMARK   13  A    between atoms: _34  and  _36
REMARK   14  A    between atoms: _36  and  _37
REMARK   15  A    between atoms: _36  and  _39
REMARK   16  A    between atoms: _39  and  _40
REMARK   17  A    between atoms: _43  and  _45
REMARK   18  A    between atoms: _45  and  _46
REMARK   19  A    between atoms: _48  and  _50
REMARK   20  A    between atoms: _50  and  _51
REMARK   21  A    between atoms: _54  and  _56
REMARK   22  A    between atoms: _56  and  _57
REMARK   23  A    between atoms: _56  and  _59
REMARK   24  A    between atoms: _59  and  _60
REMARK   25  A    between atoms: _60  and  _61
REMARK   26  A    between atoms: _66  and  _68
REMARK   27  A    between atoms: _68  and  _69
REMARK   28  A    between atoms: _68  and  _71
REMARK   29  A    between atoms: _71  and  _72
REMARK   30  A    between atoms: _77  and  _79
REMARK   31  A    between atoms: _79  and  _80
REMARK   32  A    between atoms: _79  and  _82
REMARK   33  A    between atoms: _82  and  _83
REMARK   34  A    between atoms: _85  and  _87
REMARK   35  A    between atoms: _87  and  _88
REMARK   36  A    between atoms: _87  and  _90
REMARK   37  A    between atoms: _93  and  _95
REMARK   38  A    between atoms: _95  and  _96
REMARK   39  A    between atoms: _95  and  _98
REMARK   40  A    between atoms: _98  and  _99
REMARK   41  A    between atoms: _102  and  _104
REMARK   42  A    between atoms: _104  and  _105
REMARK   43  A    between atoms: _104  and  _107
REMARK   44  A    between atoms: _107  and  _108
REMARK   45  A    between atoms: _118  and  _120
REMARK   46  A    between atoms: _120  and  _121
REMARK   47  A    between atoms: _120  and  _123
REMARK   48  A    between atoms: _126  and  _128
REMARK   49  A    between atoms: _128  and  _129
REMARK   50  A    between atoms: _128  and  _131
REMARK   51  A    between atoms: _131  and  _132
REMARK   52  A    between atoms: _132  and  _133
REMARK   53  A    between atoms: _138  and  _140
REMARK   54  A    between atoms: _140  and  _141
REMARK   55  A    between atoms: _143  and  _145
REMARK   56  A    between atoms: _145  and  _146
REMARK   57  A    between atoms: _149  and  _151
REMARK   58  A    between atoms: _151  and  _152
REMARK   59  A    between atoms: _151  and  _154
REMARK   60  A    between atoms: _154  and  _155
REMARK   61  A    between atoms: _158  and  _160
REMARK   62  A    between atoms: _160  and  _161
REMARK   63  A    between atoms: _163  and  _165
REMARK   64  A    between atoms: _165  and  _166
REMARK   65  A    between atoms: _165  and  _168
REMARK   66  A    between atoms: _168  and  _169
REMARK   67  A    between atoms: _174  and  _175
REMARK   68  A    between atoms: _177  and  _179
REMARK   69  A    between atoms: _179  and  _180
REMARK   70  A    between atoms: _179  and  _182
REMARK   71  A    between atoms: _182  and  _183
REMARK   72  A    between atoms: _193  and  _195
REMARK   73  A    between atoms: _195  and  _196
REMARK   74  A    between atoms: _195  and  _198
REMARK   75  A    between atoms: _198  and  _199
REMARK   76  A    between atoms: _202  and  _204
REMARK   77  A    between atoms: _204  and  _205
REMARK   78  A    between atoms: _204  and  _207
REMARK   79  A    between atoms: _210  and  _212
REMARK   80  A    between atoms: _212  and  _213
REMARK   81  A    between atoms: _212  and  _215
REMARK   82  A    between atoms: _215  and  _216
REMARK   83  A    between atoms: _219  and  _221
REMARK   84  A    between atoms: _221  and  _222
REMARK   85  A    between atoms: _221  and  _224
REMARK   86  A    between atoms: _227  and  _228
REMARK   87  A    between atoms: _233  and  _235
REMARK   88  A    between atoms: _235  and  _236
REMARK   89  A    between atoms: _235  and  _238
REMARK   90  A    between atoms: _238  and  _239
REMARK   91  A    between atoms: _244  and  _245
REMARK   92  A    between atoms: _248  and  _249
REMARK   93  A    between atoms: _254  and  _256
REMARK   94  A    between atoms: _256  and  _257
REMARK   95  A    between atoms: _256  and  _259
REMARK   96  A    between atoms: _259  and  _260
REMARK   97  A    between atoms: _263  and  _265
REMARK   98  A    between atoms: _265  and  _266
REMARK   99  A    between atoms: _268  and  _270
REMARK  100  A    between atoms: _270  and  _271
REMARK  101  A    between atoms: _270  and  _273
REMARK  102  A    between atoms: _273  and  _274
REMARK  103  A    between atoms: _274  and  _275
REMARK  104  A    between atoms: _275  and  _276
REMARK  105  A    between atoms: _285  and  _287
REMARK  106  A    between atoms: _287  and  _288
REMARK  107  A    between atoms: _287  and  _290
REMARK  108  A    between atoms: _290  and  _291
REMARK  109  A    between atoms: _295  and  _296
REMARK  110  A    between atoms: _301  and  _303
REMARK  111  A    between atoms: _303  and  _304
REMARK  112  A    between atoms: _303  and  _306
REMARK  113  A    between atoms: _306  and  _307
REMARK  114  A    between atoms: _310  and  _312
REMARK  115  A    between atoms: _312  and  _313
REMARK  116  A    between atoms: _312  and  _315
REMARK  117  A    between atoms: _318  and  _320
REMARK  118  A    between atoms: _320  and  _321
REMARK  119  A    between atoms: _320  and  _323
REMARK  120  A    between atoms: _323  and  _324
REMARK  121  A    between atoms: _327  and  _329
REMARK  122  A    between atoms: _329  and  _330
REMARK  123  A    between atoms: _329  and  _332
REMARK  124  A    between atoms: _332  and  _333
REMARK  125  A    between atoms: _336  and  _338
REMARK  126  A    between atoms: _338  and  _339
REMARK  127  A    between atoms: _341  and  _343
REMARK  128  A    between atoms: _343  and  _344
REMARK  129  A    between atoms: _347  and  _349
REMARK  130  A    between atoms: _349  and  _350
REMARK  131  A    between atoms: _349  and  _352
REMARK  132  A    between atoms: _352  and  _353
REMARK  133  A    between atoms: _353  and  _354
REMARK  134  A    between atoms: _359  and  _361
REMARK  135  A    between atoms: _361  and  _362
REMARK  136  A    between atoms: _361  and  _364
REMARK  137  A    between atoms: _364  and  _365
REMARK  138  A    between atoms: _370  and  _372
REMARK  139  A    between atoms: _372  and  _373
REMARK  140  A    between atoms: _372  and  _375
REMARK  141  A    between atoms: _375  and  _376
REMARK  142  A    between atoms: _378  and  _380
REMARK  143  A    between atoms: _380  and  _381
REMARK  144  A    between atoms: _380  and  _383
REMARK  145  A    between atoms: _386  and  _388
REMARK  146  A    between atoms: _388  and  _389
REMARK  147  A    between atoms: _392  and  _394
REMARK  148  A    between atoms: _394  and  _395
REMARK  149  A    between atoms: _394  and  _397
REMARK  150  A    between atoms: _397  and  _398
REMARK  151  A    between atoms: _408  and  _410
REMARK  152  A    between atoms: _410  and  _411
REMARK  153  A    between atoms: _410  and  _413
REMARK  154  A    between atoms: _416  and  _418
REMARK  155  A    between atoms: _418  and  _419
REMARK  156  A    between atoms: _418  and  _421
REMARK  157  A    between atoms: _421  and  _422
REMARK  158  A    between atoms: _422  and  _423
REMARK  159  A    between atoms: _428  and  _430
REMARK  160  A    between atoms: _430  and  _431
REMARK  161  A    between atoms: _433  and  _435
REMARK  162  A    between atoms: _435  and  _436
REMARK  163  A    between atoms: _439  and  _441
REMARK  164  A    between atoms: _441  and  _442
REMARK  165  A    between atoms: _441  and  _444
REMARK  166  A    between atoms: _444  and  _445
REMARK  167  A    between atoms: _448  and  _450
REMARK  168  A    between atoms: _450  and  _451
REMARK  169  A    between atoms: _453  and  _455
REMARK  170  A    between atoms: _455  and  _456
REMARK  171  A    between atoms: _458  and  _460
REMARK  172  A    between atoms: _460  and  _461
REMARK  173  A    between atoms: _460  and  _463
REMARK  174  A    between atoms: _463  and  _464
REMARK  175  A    between atoms: _464  and  _465
REMARK  176  A    between atoms: _465  and  _466
REMARK  177  A    between atoms: _466  and  _467
REMARK  178  A    between atoms: _471  and  _473
REMARK  179  A    between atoms: _473  and  _474
REMARK  180  A    between atoms: _473  and  _476
REMARK  181  A    between atoms: _476  and  _477
REMARK  182  A    between atoms: _482  and  _483
REMARK  183  A    between atoms: _485  and  _487
REMARK  184  A    between atoms: _487  and  _488
REMARK  185  A    between atoms: _487  and  _490
REMARK  186  A    between atoms: _490  and  _491
REMARK  187  A    between atoms: _501  and  _503
REMARK  188  A    between atoms: _503  and  _504
REMARK  189  A    between atoms: _503  and  _506
REMARK  190  A    between atoms: _506  and  _507
REMARK  191  A    between atoms: _510  and  _512
REMARK  192  A    between atoms: _512  and  _513
REMARK  193  A    between atoms: _512  and  _515
REMARK  194  A    between atoms: _518  and  _520
REMARK  195  A    between atoms: _520  and  _521
REMARK  196  A    between atoms: _520  and  _523
REMARK  197  A    between atoms: _523  and  _524
REMARK  198  A    between atoms: _527  and  _529
REMARK  199  A    between atoms: _529  and  _530
REMARK  200  A    between atoms: _529  and  _532
REMARK  201  A    between atoms: _535  and  _536
REMARK  202  A    between atoms: _541  and  _543
REMARK  203  A    between atoms: _543  and  _544
REMARK  204  A    between atoms: _543  and  _546
REMARK  205  A    between atoms: _546  and  _547
REMARK  206  A    between atoms: _552  and  _553
REMARK  207  A    between atoms: _556  and  _557
REMARK  208  A    between atoms: _562  and  _564
REMARK  209  A    between atoms: _564  and  _565
REMARK  210  A    between atoms: _564  and  _567
REMARK  211  A    between atoms: _567  and  _568
REMARK  212  A    between atoms: _571  and  _573
REMARK  213  A    between atoms: _573  and  _574
REMARK  214  A    between atoms: _573  and  _576
REMARK  215  A    between atoms: _576  and  _577
REMARK  216  A    between atoms: _580  and  _582
REMARK  217  A    between atoms: _582  and  _583
REMARK  218  A    between atoms: _585  and  _587
REMARK  219  A    between atoms: _587  and  _588
REMARK  220  A    between atoms: _587  and  _590
REMARK  221  A    between atoms: _590  and  _591
REMARK  222  A    between atoms: _591  and  _592
REMARK  223  A    between atoms: _592  and  _593
REMARK  224  A    between atoms: _602  and  _604
REMARK  225  A    between atoms: _604  and  _605
REMARK  226  A    between atoms: _604  and  _607
REMARK  227  A    between atoms: _607  and  _608
REMARK                            x       y       z     vdW  Elec       q    Type
REMARK                         _______ _______ _______ _____ _____    ______ ____
ROOT
ATOM      1  CA  VAL A   1      -0.089  13.727   5.983  0.00  0.00    +0.133 C 
ENDROOT
BRANCH   1   2
ATOM      2  CB  VAL A   1      -0.754  12.331   6.184  0.00  0.00    +0.023 C 
ATOM      3  CG2 VAL A   1      -1.623  12.301   7.472  0.00  0.00    +0.002 C 
ATOM      4  CG1 VAL A   1      -1.629  11.944   4.999  0.00  0.00    +0.002 C 
ENDBRANCH   1   2
BRANCH   1   5
ATOM      5  N   VAL A   1       0.618  13.860   4.709  0.00  0.00    -0.239 NA
ATOM      6  H   VAL A   1       1.470  13.291   4.530  0.00  0.00    +0.142 HD
ENDBRANCH   1   5
BRANCH   1   7
ATOM      7  C   VAL A   1       0.934  13.956   7.084  0.00  0.00    +0.224 C 
ATOM      8  O   VAL A   1       1.553  13.004   7.533  0.00  0.00    -0.287 OA
ENDBRANCH   1   7
TORSDOF 3
REMARK  Name = ../refined-set-2016/3sm2/3sm2_pocket.pdb
REMARK  227 active torsions:
REMARK  status: ('A' for Active; 'I' for Inactive)
REMARK    1  A    between atoms: _2  and  _3
REMARK    2  A    between atoms: _8  and  _10
REMARK    3  A    between atoms: _10  and  _11
REMARK    4  A    between atoms: _10  and  _13
REMARK    5  A    between atoms: _13  and  _14
REMARK    6  A    between atoms: _17  and  _19
REMARK    7  A    between atoms: _19  and  _20
REMARK    8  A    between atoms: _19  and  _22
REMARK    9  A    between atoms: _25  and  _27
REMARK   10  A    between atoms: _27  and  _28
REMARK   11  A    between atoms: _27  and  _30
REMARK   12  A    between atoms: _30  and  _31
REMARK   13  A    between atoms: _34  and  _36
REMARK   14  A    between atoms: _36  and  _37
REMARK   15  A    between atoms: _36  and  _39
REMARK   16  A    between atoms: _39  and  _40
REMARK   17  A    between atoms: _43  and  _45
REMARK   18  A    between atoms: _45  and  _46
REMARK   19  A    between atoms: _48  and  _50
REMARK   20  A    between atoms: _50  and  _51
REMARK   21  A    between atoms: _54  and  _56
REMARK   22  A    between atoms: _56  and  _57
REMARK   23  A    between atoms: _56  and  _59
REMARK   24  A    between atoms: _59  and  _60
REMARK   25  A    between atoms: _60  and  _61
REMARK   26  A    between atoms: _66  and  _68
REMARK   27  A    between atoms: _68  and  _69
REMARK   28  A    between atoms: _68  and  _71
REMARK   29  A    between atoms: _71  and  _72
REMARK   30  A    between atoms: _77  and  _79
REMARK   31  A    between atoms: _79  and  _80
REMARK   32  A    between atoms: _79  and  _82
REMARK   33  A    between atoms: _82  and  _83
REMARK   34  A    between atoms: _85  and  _87
REMARK   35  A    between atoms: _87  and  _88
REMARK   36  A    between atoms: _87  and  _90
REMARK   37  A    between atoms: _93  and  _95
REMARK   38  A    between atoms: _95  and  _96
REMARK   39  A    between atoms: _95  and  _98
REMARK   40  A    between atoms: _98  and  _99
REMARK   41  A    between atoms: _102  and  _104
REMARK   42  A    between atoms: _104  and  _105
REMARK   43  A    between atoms: _104  and  _107
REMARK   44  A    between atoms: _107  and  _108
REMARK   45  A    between atoms: _118  and  _120
REMARK   46  A    between atoms: _120  and  _121
REMARK   47  A    between atoms: _120  and  _123
REMARK   48  A    between atoms: _126  and  _128
REMARK   49  A    between atoms: _128  and  _129
REMARK   50  A    between atoms: _128  and  _131
REMARK   51  A    between atoms: _131  and  _132
REMARK   52  A    between atoms: _132  and  _133
REMARK   53  A    between atoms: _138  and  _140
REMARK   54  A    between atoms: _140  and  _141
REMARK   55  A    between atoms: _143  and  _145
REMARK   56  A    between atoms: _145  and  _146
REMARK   57  A    between atoms: _149  and  _151
REMARK   58  A    between atoms: _151  and  _152
REMARK   59  A    between atoms: _151  and  _154
REMARK   60  A    between atoms: _154  and  _155
REMARK   61  A    between atoms: _158  and  _160
REMARK   62  A    between atoms: _160  and  _161
REMARK   63  A    between atoms: _163  and  _165
REMARK   64  A    between atoms: _165  and  _166
REMARK   65  A    between atoms: _165  and  _168
REMARK   66  A    between atoms: _168  and  _169
REMARK   67  A    between atoms: _174  and  _175
REMARK   68  A    between atoms: _177  and  _179
REMARK   69  A    between atoms: _179  and  _180
REMARK   70  A    between atoms: _179  and  _182
REMARK   71  A    between atoms: _182  and  _183
REMARK   72  A    between atoms: _193  and  _195
REMARK   73  A    between atoms: _195  and  _196
REMARK   74  A    between atoms: _195  and  _198
REMARK   75  A    between atoms: _198  and  _199
REMARK   76  A    between atoms: _202  and  _204
REMARK   77  A    between atoms: _204  and  _205
REMARK   78  A    between atoms: _204  and  _207
REMARK   79  A    between atoms: _210  and  _212
REMARK   80  A    between atoms: _212  and  _213
REMARK   81  A    between atoms: _212  and  _215
REMARK   82  A    between atoms: _215  and  _216
REMARK   83  A    between atoms: _219  and  _221
REMARK   84  A    between atoms: _221  and  _222
REMARK   85  A    between atoms: _221  and  _224
REMARK   86  A    between atoms: _227  and  _228
REMARK   87  A    between atoms: _233  and  _235
REMARK   88  A    between atoms: _235  and  _236
REMARK   89  A    between atoms: _235  and  _238
REMARK   90  A    between atoms: _238  and  _239
REMARK   91  A    between atoms: _244  and  _245
REMARK   92  A    between atoms: _248  and  _249
REMARK   93  A    between atoms: _254  and  _256
REMARK   94  A    between atoms: _256  and  _257
REMARK   95  A    between atoms: _256  and  _259
REMARK   96  A    between atoms: _259  and  _260
REMARK   97  A    between atoms: _263  and  _265
REMARK   98  A    between atoms: _265  and  _266
REMARK   99  A    between atoms: _268  and  _270
REMARK  100  A    between atoms: _270  and  _271
REMARK  101  A    between atoms: _270  and  _273
REMARK  102  A    between atoms: _273  and  _274
REMARK  103  A    between atoms: _274  and  _275
REMARK  104  A    between atoms: _275  and  _276
REMARK  105  A    between atoms: _285  and  _287
REMARK  106  A    between atoms: _287  and  _288
REMARK  107  A    between atoms: _287  and  _290
REMARK  108  A    between atoms: _290  and  _291
REMARK  109  A    between atoms: _295  and  _296
REMARK  110  A    between atoms: _301  and  _303
REMARK  111  A    between atoms: _303  and  _304
REMARK  112  A    between atoms: _303  and  _306
REMARK  113  A    between atoms: _306  and  _307
REMARK  114  A    between atoms: _310  and  _312
REMARK  115  A    between atoms: _312  and  _313
REMARK  116  A    between atoms: _312  and  _315
REMARK  117  A    between atoms: _318  and  _320
REMARK  118  A    between atoms: _320  and  _321
REMARK  119  A    between atoms: _320  and  _323
REMARK  120  A    between atoms: _323  and  _324
REMARK  121  A    between atoms: _327  and  _329
REMARK  122  A    between atoms: _329  and  _330
REMARK  123  A    between atoms: _329  and  _332
REMARK  124  A    between atoms: _332  and  _333
REMARK  125  A    between atoms: _336  and  _338
REMARK  126  A    between atoms: _338  and  _339
REMARK  127  A    between atoms: _341  and  _343
REMARK  128  A    between atoms: _343  and  _344
REMARK  129  A    between atoms: _347  and  _349
REMARK  130  A    between atoms: _349  and  _350
REMARK  131  A    between atoms: _349  and  _352
REMARK  132  A    between atoms: _352  and  _353
REMARK  133  A    between atoms: _353  and  _354
REMARK  134  A    between atoms: _359  and  _361
REMARK  135  A    between atoms: _361  and  _362
REMARK  136  A    between atoms: _361  and  _364
REMARK  137  A    between atoms: _364  and  _365
REMARK  138  A    between atoms: _370  and  _372
REMARK  139  A    between atoms: _372  and  _373
REMARK  140  A    between atoms: _372  and  _375
REMARK  141  A    between atoms: _375  and  _376
REMARK  142  A    between atoms: _378  and  _380
REMARK  143  A    between atoms: _380  and  _381
REMARK  144  A    between atoms: _380  and  _383
REMARK  145  A    between atoms: _386  and  _388
REMARK  146  A    between atoms: _388  and  _389
REMARK  147  A    between atoms: _392  and  _394
REMARK  148  A    between atoms: _394  and  _395
REMARK  149  A    between atoms: _394  and  _397
REMARK  150  A    between atoms: _397  and  _398
REMARK  151  A    between atoms: _408  and  _410
REMARK  152  A    between atoms: _410  and  _411
REMARK  153  A    between atoms: _410  and  _413
REMARK  154  A    between atoms: _416  and  _418
REMARK  155  A    between atoms: _418  and  _419
REMARK  156  A    between atoms: _418  and  _421
REMARK  157  A    between atoms: _421  and  _422
REMARK  158  A    between atoms: _422  and  _423
REMARK  159  A    between atoms: _428  and  _430
REMARK  160  A    between atoms: _430  and  _431
REMARK  161  A    between atoms: _433  and  _435
REMARK  162  A    between atoms: _435  and  _436
REMARK  163  A    between atoms: _439  and  _441
REMARK  164  A    between atoms: _441  and  _442
REMARK  165  A    between atoms: _441  and  _444
REMARK  166  A    between atoms: _444  and  _445
REMARK  167  A    between atoms: _448  and  _450
REMARK  168  A    between atoms: _450  and  _451
REMARK  169  A    between atoms: _453  and  _455
REMARK  170  A    between atoms: _455  and  _456
REMARK  171  A    between atoms: _458  and  _460
REMARK  172  A    between atoms: _460  and  _461
REMARK  173  A    between atoms: _460  and  _463
REMARK  174  A    between atoms: _463  and  _464
REMARK  175  A    between atoms: _464  and  _465
REMARK  176  A    between atoms: _465  and  _466
REMARK  177  A    between atoms: _466  and  _467
REMARK  178  A    between atoms: _471  and  _473
REMARK  179  A    between atoms: _473  and  _474
REMARK  180  A    between atoms: _473  and  _476
REMARK  181  A    between atoms: _476  and  _477
REMARK  182  A    between atoms: _482  and  _483
REMARK  183  A    between atoms: _485  and  _487
REMARK  184  A    between atoms: _487  and  _488
REMARK  185  A    between atoms: _487  and  _490
REMARK  186  A    between atoms: _490  and  _491
REMARK  187  A    between atoms: _501  and  _503
REMARK  188  A    between atoms: _503  and  _504
REMARK  189  A    between atoms: _503  and  _506
REMARK  190  A    between atoms: _506  and  _507
REMARK  191  A    between atoms: _510  and  _512
REMARK  192  A    between atoms: _512  and  _513
REMARK  193  A    between atoms: _512  and  _515
REMARK  194  A    between atoms: _518  and  _520
REMARK  195  A    between atoms: _520  and  _521
REMARK  196  A    between atoms: _520  and  _523
REMARK  197  A    between atoms: _523  and  _524
REMARK  198  A    between atoms: _527  and  _529
REMARK  199  A    between atoms: _529  and  _530
REMARK  200  A    between atoms: _529  and  _532
REMARK  201  A    between atoms: _535  and  _536
REMARK  202  A    between atoms: _541  and  _543
REMARK  203  A    between atoms: _543  and  _544
REMARK  204  A    between atoms: _543  and  _546
REMARK  205  A    between atoms: _546  and  _547
REMARK  206  A    between atoms: _552  and  _553
REMARK  207  A    between atoms: _556  and  _557
REMARK  208  A    between atoms: _562  and  _564
REMARK  209  A    between atoms: _564  and  _565
REMARK  210  A    between atoms: _564  and  _567
REMARK  211  A    between atoms: _567  and  _568
REMARK  212  A    between atoms: _571  and  _573
REMARK  213  A    between atoms: _573  and  _574
REMARK  214  A    between atoms: _573  and  _576
REMARK  215  A    between atoms: _576  and  _577
REMARK  216  A    between atoms: _580  and  _582
REMARK  217  A    between atoms: _582  and  _583
REMARK  218  A    between atoms: _585  and  _587
REMARK  219  A    between atoms: _587  and  _588
REMARK  220  A    between atoms: _587  and  _590
REMARK  221  A    between atoms: _590  and  _591
REMARK  222  A    between atoms: _591  and  _592
REMARK  223  A    between atoms: _592  and  _593
REMARK  224  A    between atoms: _602  and  _604
REMARK  225  A    between atoms: _604  and  _605
REMARK  226  A    between atoms: _604  and  _607
REMARK  227  A    between atoms: _607  and  _608
REMARK                            x       y       z     vdW  Elec       q    Type
REMARK                         _______ _______ _______ _____ _____    ______ ____
ROOT
ATOM      1  CA  LEU A   6       3.193   4.727   4.208  0.00  0.00    +0.149 C 
ENDROOT
BRANCH   1   2
ATOM      2  C   LEU A   6       3.072   4.336   2.766  0.00  0.00    +0.241 C 
ATOM      3  N   LEU A   7       3.473   3.105   2.465  0.00  0.00    -0.297 N 
ATOM      4  H   LEU A   7       3.918   2.519   3.200  0.00  0.00    +0.150 HD
ATOM      5  O   LEU A   6       2.647   5.137   1.935  0.00  0.00    -0.273 OA
BRANCH   3   6
ATOM      6  CA  LEU A   7       3.302   2.562   1.129  0.00  0.00    +0.149 C 
BRANCH   6   7
ATOM      7  C   LEU A   7       2.021   1.738   1.157  0.00  0.00    +0.241 C 
ATOM      8  O   LEU A   7       1.967   0.648   1.758  0.00  0.00    -0.273 OA
ATOM      9  N   GLY A   8       0.992   2.253   0.495  0.00  0.00    -0.295 N 
ATOM     10  H   GLY A   8       1.139   3.095  -0.097  0.00  0.00    +0.150 HD
BRANCH   9  11
ATOM     11  CA  GLY A   8      -0.338   1.666   0.578  0.00  0.00    +0.176 C 
BRANCH  11  12
ATOM     12  C   GLY A   8      -0.691   0.728  -0.558  0.00  0.00    +0.243 C 
ATOM     13  N   ARG A   9      -1.964   0.370  -0.574  0.00  0.00    -0.297 N 
ATOM     14  H   ARG A   9      -2.620   0.805   0.106  0.00  0.00    +0.150 HD
ATOM     15  O   GLY A   8       0.160   0.328  -1.383  0.00  0.00    -0.273 OA
BRANCH  13  16
ATOM     16  CA  ARG A   9      -2.474  -0.616  -1.517  0.00  0.00    +0.149 C 
BRANCH  16  17
ATOM     17  C   ARG A   9      -2.362  -0.163  -2.950  0.00  0.00    +0.241 C 
ATOM     18  N   ASP A  10      -2.475   1.150  -3.196  0.00  0.00    -0.298 N 
ATOM     19  H   ASP A  10      -2.752   1.788  -2.423  0.00  0.00    +0.150 HD
ATOM     20  O   ARG A   9      -2.214  -1.009  -3.830  0.00  0.00    -0.273 OA
BRANCH  18  21
ATOM     21  CA  ASP A  10      -2.222   1.702  -4.510  0.00  0.00    +0.148 C 
BRANCH  21  22
ATOM     22  C   ASP A  10      -0.905   1.192  -5.093  0.00  0.00    +0.227 C 
ATOM     23  O   ASP A  10      -0.896   0.571  -6.169  0.00  0.00    -0.286 OA
ENDBRANCH  21  22
BRANCH  21  24
ATOM     24  CB  ASP A  10      -2.332   3.229  -4.559  0.00  0.00    +0.142 C 
BRANCH  24  25
ATOM     25  CG  ASP A  10      -1.387   3.952  -3.579  0.00  0.00    +0.367 C 
ATOM     26  OD2 ASP A  10      -0.752   3.312  -2.698  0.00  0.00    -0.246 OA
ATOM     27  OD1 ASP A  10      -1.352   5.193  -3.656  0.00  0.00    -0.246 OA
ENDBRANCH  24  25
ENDBRANCH  21  24
ENDBRANCH  18  21
ENDBRANCH  16  17
BRANCH  16  28
ATOM     28  CB  ARG A   9      -3.931  -0.943  -1.210  0.00  0.00    +0.033 C 
BRANCH  28  29
ATOM     29  CG  ARG A   9      -4.096  -1.706   0.103  0.00  0.00    +0.045 C 
BRANCH  29  30
ATOM     30  CD  ARG A   9      -5.505  -2.280   0.271  0.00  0.00    +0.174 C 
BRANCH  30  31
ATOM     31  NE  ARG A   9      -6.583  -1.269   0.241  0.00  0.00    -0.265 N 
ATOM     32  CZ  ARG A   9      -7.051  -0.606   1.297  0.00  0.00    +0.342 C 
ATOM     33  NH2 ARG A   9      -6.538  -0.786   2.518  0.00  0.00    -0.292 N 
ATOM     34 HH21 ARG A   9      -6.921  -0.256   3.326  0.00  0.00    +0.255 HD
ATOM     35 HH22 ARG A   9      -5.755  -1.456   2.660  0.00  0.00    +0.255 HD
ATOM     36  NH1 ARG A   9      -8.042   0.272   1.131  0.00  0.00    -0.292 N 
ATOM     37 HH11 ARG A   9      -8.415   0.795   1.948  0.00  0.00    +0.255 HD
ATOM     38 HH12 ARG A   9      -8.441   0.433   0.184  0.00  0.00    +0.255 HD
ATOM     39  HE  ARG A   9      -7.012  -1.058  -0.682  0.00  0.00    +0.259 HD
ENDBRANCH  30  31
ENDBRANCH  29  30
ENDBRANCH  28  29
ENDBRANCH  16  28
ENDBRANCH  13  16
ENDBRANCH  11  12
ENDBRANCH   9  11
ENDBRANCH   6   7
BRANCH   6  40
ATOM     40  CB  LEU A   7       4.533   1.726   0.725  0.00  0.00    +0.029 C 
BRANCH  40  41
ATOM     41  CG  LEU A   7       4.634   1.261  -0.733  0.00  0.00    +0.002 C 
ATOM     42  CD2 LEU A   7       3.688   0.126  -1.027  0.00  0.00    +0.000 C 
ATOM     43  CD1 LEU A   7       6.055   0.842  -1.106  0.00  0.00    +0.000 C 
ENDBRANCH  40  41
ENDBRANCH   6  40
ENDBRANCH   3   6
ENDBRANCH   1   2
BRANCH   1  46
ATOM     44  C   PRO A   5       4.981   6.146   5.077  0.00  0.00    +0.241 C 
ATOM     45  O   PRO A   5       5.538   5.214   5.743  0.00  0.00    -0.273 OA
ATOM     46  N   LEU A   6       3.902   5.992   4.319  0.00  0.00    -0.297 N 
ATOM     47  H   LEU A   6       3.549   6.810   3.782  0.00  0.00    +0.150 HD
BRANCH  44  54
ATOM     48  C   TYR A   4       5.497   7.713   7.549  0.00  0.00    +0.244 C 
ATOM     49  O   TYR A   4       4.267   7.571   7.598  0.00  0.00    -0.273 OA
ATOM     50  N   PRO A   5       6.189   7.760   6.405  0.00  0.00    -0.272 N 
ATOM     51  CD  PRO A   5       7.646   7.920   6.283  0.00  0.00    +0.094 C 
ATOM     52  CG  PRO A   5       7.847   8.199   4.862  0.00  0.00    +0.024 C 
ATOM     53  CB  PRO A   5       6.649   7.735   4.096  0.00  0.00    +0.031 C 
ATOM     54  CA  PRO A   5       5.531   7.556   5.124  0.00  0.00    +0.152 C 
BRANCH  48  55
ATOM     55  CA  TYR A   4       6.299   7.910   8.826  0.00  0.00    +0.153 C 
BRANCH  55  58
ATOM     56  C   PRO A   3       5.878   8.990  10.959  0.00  0.00    +0.241 C 
ATOM     57  O   PRO A   3       7.062   9.329  11.058  0.00  0.00    -0.273 OA
ATOM     58  N   TYR A   4       5.422   8.248   9.949  0.00  0.00    -0.297 N 
ATOM     59  H   TYR A   4       4.439   7.908   9.959  0.00  0.00    +0.150 HD
BRANCH  56  65
ATOM     60  C   CYS A   2       3.022  10.427  10.769  0.00  0.00    +0.245 C 
ATOM     61  N   PRO A   3       3.452   9.453  11.597  0.00  0.00    -0.272 N 
ATOM     62  CD  PRO A   3       2.620   8.457  12.294  0.00  0.00    +0.094 C 
ATOM     63  CG  PRO A   3       3.639   7.572  12.961  0.00  0.00    +0.024 C 
ATOM     64  CB  PRO A   3       4.858   8.393  13.192  0.00  0.00    +0.031 C 
ATOM     65  CA  PRO A   3       4.873   9.407  12.043  0.00  0.00    +0.152 C 
ATOM     66  O   CYS A   2       3.766  11.270  10.313  0.00  0.00    -0.273 OA
BRANCH  60  67
ATOM     67  CA  CYS A   2       1.550  10.486  10.418  0.00  0.00    +0.161 C 
BRANCH  67  70
ATOM     68  C   ASP A   1       0.596  12.464  11.535  0.00  0.00    +0.239 C 
ATOM     69  O   ASP A   1       0.504  11.874  12.617  0.00  0.00    -0.274 OA
ATOM     70  N   CYS A   2       1.082  11.883  10.441  0.00  0.00    -0.296 N 
ATOM     71  H   CYS A   2       1.134  12.439   9.564  0.00  0.00    +0.150 HD
BRANCH  68  72
ATOM     72  CA  ASP A   1       0.157  13.929  11.401  0.00  0.00    +0.156 C 
BRANCH  72  73
ATOM     73  N   ASP A   1       0.531  14.519  10.098  0.00  0.00    -0.238 NA
ATOM     74  H   ASP A   1      -0.166  14.584   9.329  0.00  0.00    +0.142 HD
ENDBRANCH  72  73
BRANCH  72  75
ATOM     75  CB  ASP A   1      -1.365  14.088  11.639  0.00  0.00    +0.140 C 
BRANCH  75  76
ATOM     76  CG  ASP A   1      -1.771  15.541  11.742  0.00  0.00    +0.367 C 
ATOM     77  OD2 ASP A   1      -1.135  16.251  12.572  0.00  0.00    -0.246 OA
ATOM     78  OD1 ASP A   1      -2.717  15.962  11.026  0.00  0.00    -0.246 OA
ENDBRANCH  75  76
ENDBRANCH  72  75
ENDBRANCH  68  72
ENDBRANCH  67  70
BRANCH  67  79
ATOM     79  CB  CYS A   2       1.419   9.937   9.003  0.00  0.00    +0.098 C 
ATOM     80  SG  CYS A   2      -0.078   9.146   8.619  0.00  0.00    -0.080 S 
ENDBRANCH  67  79
ENDBRANCH  60  67
ENDBRANCH  56  65
ENDBRANCH  55  58
BRANCH  55  81
ATOM     81  CB  TYR A   4       7.177   6.683   9.123  0.00  0.00    +0.055 C 
BRANCH  81  82
ATOM     82  CG  TYR A   4       6.531   5.745  10.086  0.00  0.00    -0.020 A 
ATOM     83  CD2 TYR A   4       7.062   5.558  11.350  0.00  0.00    -0.001 A 
ATOM     84  CE2 TYR A   4       6.444   4.721  12.270  0.00  0.00    +0.036 A 
ATOM     85  CZ  TYR A   4       5.280   4.079  11.910  0.00  0.00    +0.134 A 
ATOM     86  CE1 TYR A   4       4.720   4.267  10.658  0.00  0.00    +0.036 A 
ATOM     87  CD1 TYR A   4       5.352   5.096   9.749  0.00  0.00    -0.001 A 
BRANCH  85  88
ATOM     88  OH  TYR A   4       4.661   3.232  12.796  0.00  0.00    -0.506 OA
ATOM     89  HH  TYR A   4       5.178   3.204  13.640  0.00  0.00    +0.292 HD
ENDBRANCH  85  88
ENDBRANCH  81  82
ENDBRANCH  55  81
ENDBRANCH  48  55
ENDBRANCH  44  54
ENDBRANCH   1  46
BRANCH   1  90
ATOM     90  CB  LEU A   6       1.775   4.838   4.818  0.00  0.00    +0.029 C 
BRANCH  90  91
ATOM     91  CG  LEU A   6       1.620   5.472   6.208  0.00  0.00    +0.002 C 
ATOM     92  CD2 LEU A   6       2.319   4.575   7.312  0.00  0.00    +0.000 C 
ATOM     93  CD1 LEU A   6       0.129   5.656   6.540  0.00  0.00    +0.000 C 
ENDBRANCH  90  91
ENDBRANCH   1  90
TORSDOF 34
REMARK  Name = ../refined-set-2016/3sm2/3sm2_pocket.pdb
REMARK  227 active torsions:
REMARK  status: ('A' for Active; 'I' for Inactive)
REMARK    1  A    between atoms: _2  and  _3
REMARK    2  A    between atoms: _8  and  _10
REMARK    3  A    between atoms: _10  and  _11
REMARK    4  A    between atoms: _10  and  _13
REMARK    5  A    between atoms: _13  and  _14
REMARK    6  A    between atoms: _17  and  _19
REMARK    7  A    between atoms: _19  and  _20
REMARK    8  A    between atoms: _19  and  _22
REMARK    9  A    between atoms: _25  and  _27
REMARK   10  A    between atoms: _27  and  _28
REMARK   11  A    between atoms: _27  and  _30
REMARK   12  A    between atoms: _30  and  _31
REMARK   13  A    between atoms: _34  and  _36
REMARK   14  A    between atoms: _36  and  _37
REMARK   15  A    between atoms: _36  and  _39
REMARK   16  A    between atoms: _39  and  _40
REMARK   17  A    between atoms: _43  and  _45
REMARK   18  A    between atoms: _45  and  _46
REMARK   19  A    between atoms: _48  and  _50
REMARK   20  A    between atoms: _50  and  _51
REMARK   21  A    between atoms: _54  and  _56
REMARK   22  A    between atoms: _56  and  _57
REMARK   23  A    between atoms: _56  and  _59
REMARK   24  A    between atoms: _59  and  _60
REMARK   25  A    between atoms: _60  and  _61
REMARK   26  A    between atoms: _66  and  _68
REMARK   27  A    between atoms: _68  and  _69
REMARK   28  A    between atoms: _68  and  _71
REMARK   29  A    between atoms: _71  and  _72
REMARK   30  A    between atoms: _77  and  _79
REMARK   31  A    between atoms: _79  and  _80
REMARK   32  A    between atoms: _79  and  _82
REMARK   33  A    between atoms: _82  and  _83
REMARK   34  A    between atoms: _85  and  _87
REMARK   35  A    between atoms: _87  and  _88
REMARK   36  A    between atoms: _87  and  _90
REMARK   37  A    between atoms: _93  and  _95
REMARK   38  A    between atoms: _95  and  _96
REMARK   39  A    between atoms: _95  and  _98
REMARK   40  A    between atoms: _98  and  _99
REMARK   41  A    between atoms: _102  and  _104
REMARK   42  A    between atoms: _104  and  _105
REMARK   43  A    between atoms: _104  and  _107
REMARK   44  A    between atoms: _107  and  _108
REMARK   45  A    between atoms: _118  and  _120
REMARK   46  A    between atoms: _120  and  _121
REMARK   47  A    between atoms: _120  and  _123
REMARK   48  A    between atoms: _126  and  _128
REMARK   49  A    between atoms: _128  and  _129
REMARK   50  A    between atoms: _128  and  _131
REMARK   51  A    between atoms: _131  and  _132
REMARK   52  A    between atoms: _132  and  _133
REMARK   53  A    between atoms: _138  and  _140
REMARK   54  A    between atoms: _140  and  _141
REMARK   55  A    between atoms: _143  and  _145
REMARK   56  A    between atoms: _145  and  _146
REMARK   57  A    between atoms: _149  and  _151
REMARK   58  A    between atoms: _151  and  _152
REMARK   59  A    between atoms: _151  and  _154
REMARK   60  A    between atoms: _154  and  _155
REMARK   61  A    between atoms: _158  and  _160
REMARK   62  A    between atoms: _160  and  _161
REMARK   63  A    between atoms: _163  and  _165
REMARK   64  A    between atoms: _165  and  _166
REMARK   65  A    between atoms: _165  and  _168
REMARK   66  A    between atoms: _168  and  _169
REMARK   67  A    between atoms: _174  and  _175
REMARK   68  A    between atoms: _177  and  _179
REMARK   69  A    between atoms: _179  and  _180
REMARK   70  A    between atoms: _179  and  _182
REMARK   71  A    between atoms: _182  and  _183
REMARK   72  A    between atoms: _193  and  _195
REMARK   73  A    between atoms: _195  and  _196
REMARK   74  A    between atoms: _195  and  _198
REMARK   75  A    between atoms: _198  and  _199
REMARK   76  A    between atoms: _202  and  _204
REMARK   77  A    between atoms: _204  and  _205
REMARK   78  A    between atoms: _204  and  _207
REMARK   79  A    between atoms: _210  and  _212
REMARK   80  A    between atoms: _212  and  _213
REMARK   81  A    between atoms: _212  and  _215
REMARK   82  A    between atoms: _215  and  _216
REMARK   83  A    between atoms: _219  and  _221
REMARK   84  A    between atoms: _221  and  _222
REMARK   85  A    between atoms: _221  and  _224
REMARK   86  A    between atoms: _227  and  _228
REMARK   87  A    between atoms: _233  and  _235
REMARK   88  A    between atoms: _235  and  _236
REMARK   89  A    between atoms: _235  and  _238
REMARK   90  A    between atoms: _238  and  _239
REMARK   91  A    between atoms: _244  and  _245
REMARK   92  A    between atoms: _248  and  _249
REMARK   93  A    between atoms: _254  and  _256
REMARK   94  A    between atoms: _256  and  _257
REMARK   95  A    between atoms: _256  and  _259
REMARK   96  A    between atoms: _259  and  _260
REMARK   97  A    between atoms: _263  and  _265
REMARK   98  A    between atoms: _265  and  _266
REMARK   99  A    between atoms: _268  and  _270
REMARK  100  A    between atoms: _270  and  _271
REMARK  101  A    between atoms: _270  and  _273
REMARK  102  A    between atoms: _273  and  _274
REMARK  103  A    between atoms: _274  and  _275
REMARK  104  A    between atoms: _275  and  _276
REMARK  105  A    between atoms: _285  and  _287
REMARK  106  A    between atoms: _287  and  _288
REMARK  107  A    between atoms: _287  and  _290
REMARK  108  A    between atoms: _290  and  _291
REMARK  109  A    between atoms: _295  and  _296
REMARK  110  A    between atoms: _301  and  _303
REMARK  111  A    between atoms: _303  and  _304
REMARK  112  A    between atoms: _303  and  _306
REMARK  113  A    between atoms: _306  and  _307
REMARK  114  A    between atoms: _310  and  _312
REMARK  115  A    between atoms: _312  and  _313
REMARK  116  A    between atoms: _312  and  _315
REMARK  117  A    between atoms: _318  and  _320
REMARK  118  A    between atoms: _320  and  _321
REMARK  119  A    between atoms: _320  and  _323
REMARK  120  A    between atoms: _323  and  _324
REMARK  121  A    between atoms: _327  and  _329
REMARK  122  A    between atoms: _329  and  _330
REMARK  123  A    between atoms: _329  and  _332
REMARK  124  A    between atoms: _332  and  _333
REMARK  125  A    between atoms: _336  and  _338
REMARK  126  A    between atoms: _338  and  _339
REMARK  127  A    between atoms: _341  and  _343
REMARK  128  A    between atoms: _343  and  _344
REMARK  129  A    between atoms: _347  and  _349
REMARK  130  A    between atoms: _349  and  _350
REMARK  131  A    between atoms: _349  and  _352
REMARK  132  A    between atoms: _352  and  _353
REMARK  133  A    between atoms: _353  and  _354
REMARK  134  A    between atoms: _359  and  _361
REMARK  135  A    between atoms: _361  and  _362
REMARK  136  A    between atoms: _361  and  _364
REMARK  137  A    between atoms: _364  and  _365
REMARK  138  A    between atoms: _370  and  _372
REMARK  139  A    between atoms: _372  and  _373
REMARK  140  A    between atoms: _372  and  _375
REMARK  141  A    between atoms: _375  and  _376
REMARK  142  A    between atoms: _378  and  _380
REMARK  143  A    between atoms: _380  and  _381
REMARK  144  A    between atoms: _380  and  _383
REMARK  145  A    between atoms: _386  and  _388
REMARK  146  A    between atoms: _388  and  _389
REMARK  147  A    between atoms: _392  and  _394
REMARK  148  A    between atoms: _394  and  _395
REMARK  149  A    between atoms: _394  and  _397
REMARK  150  A    between atoms: _397  and  _398
REMARK  151  A    between atoms: _408  and  _410
REMARK  152  A    between atoms: _410  and  _411
REMARK  153  A    between atoms: _410  and  _413
REMARK  154  A    between atoms: _416  and  _418
REMARK  155  A    between atoms: _418  and  _419
REMARK  156  A    between atoms: _418  and  _421
REMARK  157  A    between atoms: _421  and  _422
REMARK  158  A    between atoms: _422  and  _423
REMARK  159  A    between atoms: _428  and  _430
REMARK  160  A    between atoms: _430  and  _431
REMARK  161  A    between atoms: _433  and  _435
REMARK  162  A    between atoms: _435  and  _436
REMARK  163  A    between atoms: _439  and  _441
REMARK  164  A    between atoms: _441  and  _442
REMARK  165  A    between atoms: _441  and  _444
REMARK  166  A    between atoms: _444  and  _445
REMARK  167  A    between atoms: _448  and  _450
REMARK  168  A    between atoms: _450  and  _451
REMARK  169  A    between atoms: _453  and  _455
REMARK  170  A    between atoms: _455  and  _456
REMARK  171  A    between atoms: _458  and  _460
REMARK  172  A    between atoms: _460  and  _461
REMARK  173  A    between atoms: _460  and  _463
REMARK  174  A    between atoms: _463  and  _464
REMARK  175  A    between atoms: _464  and  _465
REMARK  176  A    between atoms: _465  and  _466
REMARK  177  A    between atoms: _466  and  _467
REMARK  178  A    between atoms: _471  and  _473
REMARK  179  A    between atoms: _473  and  _474
REMARK  180  A    between atoms: _473  and  _476
REMARK  181  A    between atoms: _476  and  _477
REMARK  182  A    between atoms: _482  and  _483
REMARK  183  A    between atoms: _485  and  _487
REMARK  184  A    between atoms: _487  and  _488
REMARK  185  A    between atoms: _487  and  _490
REMARK  186  A    between atoms: _490  and  _491
REMARK  187  A    between atoms: _501  and  _503
REMARK  188  A    between atoms: _503  and  _504
REMARK  189  A    between atoms: _503  and  _506
REMARK  190  A    between atoms: _506  and  _507
REMARK  191  A    between atoms: _510  and  _512
REMARK  192  A    between atoms: _512  and  _513
REMARK  193  A    between atoms: _512  and  _515
REMARK  194  A    between atoms: _518  and  _520
REMARK  195  A    between atoms: _520  and  _521
REMARK  196  A    between atoms: _520  and  _523
REMARK  197  A    between atoms: _523  and  _524
REMARK  198  A    between atoms: _527  and  _529
REMARK  199  A    between atoms: _529  and  _530
REMARK  200  A    between atoms: _529  and  _532
REMARK  201  A    between atoms: _535  and  _536
REMARK  202  A    between atoms: _541  and  _543
REMARK  203  A    between atoms: _543  and  _544
REMARK  204  A    between atoms: _543  and  _546
REMARK  205  A    between atoms: _546  and  _547
REMARK  206  A    between atoms: _552  and  _553
REMARK  207  A    between atoms: _556  and  _557
REMARK  208  A    between atoms: _562  and  _564
REMARK  209  A    between atoms: _564  and  _565
REMARK  210  A    between atoms: _564  and  _567
REMARK  211  A    between atoms: _567  and  _568
REMARK  212  A    between atoms: _571  and  _573
REMARK  213  A    between atoms: _573  and  _574
REMARK  214  A    between atoms: _573  and  _576
REMARK  215  A    between atoms: _576  and  _577
REMARK  216  A    between atoms: _580  and  _582
REMARK  217  A    between atoms: _582  and  _583
REMARK  218  A    between atoms: _585  and  _587
REMARK  219  A    between atoms: _587  and  _588
REMARK  220  A    between atoms: _587  and  _590
REMARK  221  A    between atoms: _590  and  _591
REMARK  222  A    between atoms: _591  and  _592
REMARK  223  A    between atoms: _592  and  _593
REMARK  224  A    between atoms: _602  and  _604
REMARK  225  A    between atoms: _604  and  _605
REMARK  226  A    between atoms: _604  and  _607
REMARK  227  A    between atoms: _607  and  _608
REMARK                            x       y       z     vdW  Elec       q    Type
REMARK                         _______ _______ _______ _____ _____    ______ ____
ROOT
ATOM      1  O   HOH     1      -5.046   5.709  11.307  0.00  0.00    +0.000 OA
ENDROOT
TORSDOF 0
REMARK  Name = ../refined-set-2016/3sm2/3sm2_pocket.pdb
REMARK  227 active torsions:
REMARK  status: ('A' for Active; 'I' for Inactive)
REMARK    1  A    between atoms: _2  and  _3
REMARK    2  A    between atoms: _8  and  _10
REMARK    3  A    between atoms: _10  and  _11
REMARK    4  A    between atoms: _10  and  _13
REMARK    5  A    between atoms: _13  and  _14
REMARK    6  A    between atoms: _17  and  _19
REMARK    7  A    between atoms: _19  and  _20
REMARK    8  A    between atoms: _19  and  _22
REMARK    9  A    between atoms: _25  and  _27
REMARK   10  A    between atoms: _27  and  _28
REMARK   11  A    between atoms: _27  and  _30
REMARK   12  A    between atoms: _30  and  _31
REMARK   13  A    between atoms: _34  and  _36
REMARK   14  A    between atoms: _36  and  _37
REMARK   15  A    between atoms: _36  and  _39
REMARK   16  A    between atoms: _39  and  _40
REMARK   17  A    between atoms: _43  and  _45
REMARK   18  A    between atoms: _45  and  _46
REMARK   19  A    between atoms: _48  and  _50
REMARK   20  A    between atoms: _50  and  _51
REMARK   21  A    between atoms: _54  and  _56
REMARK   22  A    between atoms: _56  and  _57
REMARK   23  A    between atoms: _56  and  _59
REMARK   24  A    between atoms: _59  and  _60
REMARK   25  A    between atoms: _60  and  _61
REMARK   26  A    between atoms: _66  and  _68
REMARK   27  A    between atoms: _68  and  _69
REMARK   28  A    between atoms: _68  and  _71
REMARK   29  A    between atoms: _71  and  _72
REMARK   30  A    between atoms: _77  and  _79
REMARK   31  A    between atoms: _79  and  _80
REMARK   32  A    between atoms: _79  and  _82
REMARK   33  A    between atoms: _82  and  _83
REMARK   34  A    between atoms: _85  and  _87
REMARK   35  A    between atoms: _87  and  _88
REMARK   36  A    between atoms: _87  and  _90
REMARK   37  A    between atoms: _93  and  _95
REMARK   38  A    between atoms: _95  and  _96
REMARK   39  A    between atoms: _95  and  _98
REMARK   40  A    between atoms: _98  and  _99
REMARK   41  A    between atoms: _102  and  _104
REMARK   42  A    between atoms: _104  and  _105
REMARK   43  A    between atoms: _104  and  _107
REMARK   44  A    between atoms: _107  and  _108
REMARK   45  A    between atoms: _118  and  _120
REMARK   46  A    between atoms: _120  and  _121
REMARK   47  A    between atoms: _120  and  _123
REMARK   48  A    between atoms: _126  and  _128
REMARK   49  A    between atoms: _128  and  _129
REMARK   50  A    between atoms: _128  and  _131
REMARK   51  A    between atoms: _131  and  _132
REMARK   52  A    between atoms: _132  and  _133
REMARK   53  A    between atoms: _138  and  _140
REMARK   54  A    between atoms: _140  and  _141
REMARK   55  A    between atoms: _143  and  _145
REMARK   56  A    between atoms: _145  and  _146
REMARK   57  A    between atoms: _149  and  _151
REMARK   58  A    between atoms: _151  and  _152
REMARK   59  A    between atoms: _151  and  _154
REMARK   60  A    between atoms: _154  and  _155
REMARK   61  A    between atoms: _158  and  _160
REMARK   62  A    between atoms: _160  and  _161
REMARK   63  A    between atoms: _163  and  _165
REMARK   64  A    between atoms: _165  and  _166
REMARK   65  A    between atoms: _165  and  _168
REMARK   66  A    between atoms: _168  and  _169
REMARK   67  A    between atoms: _174  and  _175
REMARK   68  A    between atoms: _177  and  _179
REMARK   69  A    between atoms: _179  and  _180
REMARK   70  A    between atoms: _179  and  _182
REMARK   71  A    between atoms: _182  and  _183
REMARK   72  A    between atoms: _193  and  _195
REMARK   73  A    between atoms: _195  and  _196
REMARK   74  A    between atoms: _195  and  _198
REMARK   75  A    between atoms: _198  and  _199
REMARK   76  A    between atoms: _202  and  _204
REMARK   77  A    between atoms: _204  and  _205
REMARK   78  A    between atoms: _204  and  _207
REMARK   79  A    between atoms: _210  and  _212
REMARK   80  A    between atoms: _212  and  _213
REMARK   81  A    between atoms: _212  and  _215
REMARK   82  A    between atoms: _215  and  _216
REMARK   83  A    between atoms: _219  and  _221
REMARK   84  A    between atoms: _221  and  _222
REMARK   85  A    between atoms: _221  and  _224
REMARK   86  A    between atoms: _227  and  _228
REMARK   87  A    between atoms: _233  and  _235
REMARK   88  A    between atoms: _235  and  _236
REMARK   89  A    between atoms: _235  and  _238
REMARK   90  A    between atoms: _238  and  _239
REMARK   91  A    between atoms: _244  and  _245
REMARK   92  A    between atoms: _248  and  _249
REMARK   93  A    between atoms: _254  and  _256
REMARK   94  A    between atoms: _256  and  _257
REMARK   95  A    between atoms: _256  and  _259
REMARK   96  A    between atoms: _259  and  _260
REMARK   97  A    between atoms: _263  and  _265
REMARK   98  A    between atoms: _265  and  _266
REMARK   99  A    between atoms: _268  and  _270
REMARK  100  A    between atoms: _270  and  _271
REMARK  101  A    between atoms: _270  and  _273
REMARK  102  A    between atoms: _273  and  _274
REMARK  103  A    between atoms: _274  and  _275
REMARK  104  A    between atoms: _275  and  _276
REMARK  105  A    between atoms: _285  and  _287
REMARK  106  A    between atoms: _287  and  _288
REMARK  107  A    between atoms: _287  and  _290
REMARK  108  A    between atoms: _290  and  _291
REMARK  109  A    between atoms: _295  and  _296
REMARK  110  A    between atoms: _301  and  _303
REMARK  111  A    between atoms: _303  and  _304
REMARK  112  A    between atoms: _303  and  _306
REMARK  113  A    between atoms: _306  and  _307
REMARK  114  A    between atoms: _310  and  _312
REMARK  115  A    between atoms: _312  and  _313
REMARK  116  A    between atoms: _312  and  _315
REMARK  117  A    between atoms: _318  and  _320
REMARK  118  A    between atoms: _320  and  _321
REMARK  119  A    between atoms: _320  and  _323
REMARK  120  A    between atoms: _323  and  _324
REMARK  121  A    between atoms: _327  and  _329
REMARK  122  A    between atoms: _329  and  _330
REMARK  123  A    between atoms: _329  and  _332
REMARK  124  A    between atoms: _332  and  _333
REMARK  125  A    between atoms: _336  and  _338
REMARK  126  A    between atoms: _338  and  _339
REMARK  127  A    between atoms: _341  and  _343
REMARK  128  A    between atoms: _343  and  _344
REMARK  129  A    between atoms: _347  and  _349
REMARK  130  A    between atoms: _349  and  _350
REMARK  131  A    between atoms: _349  and  _352
REMARK  132  A    between atoms: _352  and  _353
REMARK  133  A    between atoms: _353  and  _354
REMARK  134  A    between atoms: _359  and  _361
REMARK  135  A    between atoms: _361  and  _362
REMARK  136  A    between atoms: _361  and  _364
REMARK  137  A    between atoms: _364  and  _365
REMARK  138  A    between atoms: _370  and  _372
REMARK  139  A    between atoms: _372  and  _373
REMARK  140  A    between atoms: _372  and  _375
REMARK  141  A    between atoms: _375  and  _376
REMARK  142  A    between atoms: _378  and  _380
REMARK  143  A    between atoms: _380  and  _381
REMARK  144  A    between atoms: _380  and  _383
REMARK  145  A    between atoms: _386  and  _388
REMARK  146  A    between atoms: _388  and  _389
REMARK  147  A    between atoms: _392  and  _394
REMARK  148  A    between atoms: _394  and  _395
REMARK  149  A    between atoms: _394  and  _397
REMARK  150  A    between atoms: _397  and  _398
REMARK  151  A    between atoms: _408  and  _410
REMARK  152  A    between atoms: _410  and  _411
REMARK  153  A    between atoms: _410  and  _413
REMARK  154  A    between atoms: _416  and  _418
REMARK  155  A    between atoms: _418  and  _419
REMARK  156  A    between atoms: _418  and  _421
REMARK  157  A    between atoms: _421  and  _422
REMARK  158  A    between atoms: _422  and  _423
REMARK  159  A    between atoms: _428  and  _430
REMARK  160  A    between atoms: _430  and  _431
REMARK  161  A    between atoms: _433  and  _435
REMARK  162  A    between atoms: _435  and  _436
REMARK  163  A    between atoms: _439  and  _441
REMARK  164  A    between atoms: _441  and  _442
REMARK  165  A    between atoms: _441  and  _444
REMARK  166  A    between atoms: _444  and  _445
REMARK  167  A    between atoms: _448  and  _450
REMARK  168  A    between atoms: _450  and  _451
REMARK  169  A    between atoms: _453  and  _455
REMARK  170  A    between atoms: _455  and  _456
REMARK  171  A    between atoms: _458  and  _460
REMARK  172  A    between atoms: _460  and  _461
REMARK  173  A    between atoms: _460  and  _463
REMARK  174  A    between atoms: _463  and  _464
REMARK  175  A    between atoms: _464  and  _465
REMARK  176  A    between atoms: _465  and  _466
REMARK  177  A    between atoms: _466  and  _467
REMARK  178  A    between atoms: _471  and  _473
REMARK  179  A    between atoms: _473  and  _474
REMARK  180  A    between atoms: _473  and  _476
REMARK  181  A    between atoms: _476  and  _477
REMARK  182  A    between atoms: _482  and  _483
REMARK  183  A    between atoms: _485  and  _487
REMARK  184  A    between atoms: _487  and  _488
REMARK  185  A    between atoms: _487  and  _490
REMARK  186  A    between atoms: _490  and  _491
REMARK  187  A    between atoms: _501  and  _503
REMARK  188  A    between atoms: _503  and  _504
REMARK  189  A    between atoms: _503  and  _506
REMARK  190  A    between atoms: _506  and  _507
REMARK  191  A    between atoms: _510  and  _512
REMARK  192  A    between atoms: _512  and  _513
REMARK  193  A    between atoms: _512  and  _515
REMARK  194  A    between atoms: _518  and  _520
REMARK  195  A    between atoms: _520  and  _521
REMARK  196  A    between atoms: _520  and  _523
REMARK  197  A    between atoms: _523  and  _524
REMARK  198  A    between atoms: _527  and  _529
REMARK  199  A    between atoms: _529  and  _530
REMARK  200  A    between atoms: _529  and  _532
REMARK  201  A    between atoms: _535  and  _536
REMARK  202  A    between atoms: _541  and  _543
REMARK  203  A    between atoms: _543  and  _544
REMARK  204  A    between atoms: _543  and  _546
REMARK  205  A    between atoms: _546  and  _547
REMARK  206  A    between atoms: _552  and  _553
REMARK  207  A    between atoms: _556  and  _557
REMARK  208  A    between atoms: _562  and  _564
REMARK  209  A    between atoms: _564  and  _565
REMARK  210  A    between atoms: _564  and  _567
REMARK  211  A    between atoms: _567  and  _568
REMARK  212  A    between atoms: _571  and  _573
REMARK  213  A    between atoms: _573  and  _574
REMARK  214  A    between atoms: _573  and  _576
REMARK  215  A    between atoms: _576  and  _577
REMARK  216  A    between atoms: _580  and  _582
REMARK  217  A    between atoms: _582  and  _583
REMARK  218  A    between atoms: _585  and  _587
REMARK  219  A    between atoms: _587  and  _588
REMARK  220  A    between atoms: _587  and  _590
REMARK  221  A    between atoms: _590  and  _591
REMARK  222  A    between atoms: _591  and  _592
REMARK  223  A    between atoms: _592  and  _593
REMARK  224  A    between atoms: _602  and  _604
REMARK  225  A    between atoms: _604  and  _605
REMARK  226  A    between atoms: _604  and  _607
REMARK  227  A    between atoms: _607  and  _608
REMARK                            x       y       z     vdW  Elec       q    Type
REMARK                         _______ _______ _______ _____ _____    ______ ____
ROOT
ATOM      1  O   HOH     1       0.338   1.305  14.331  0.00  0.00    +0.000 OA
ENDROOT
TORSDOF 0
REMARK  Name = ../refined-set-2016/3sm2/3sm2_pocket.pdb
REMARK  227 active torsions:
REMARK  status: ('A' for Active; 'I' for Inactive)
REMARK    1  A    between atoms: _2  and  _3
REMARK    2  A    between atoms: _8  and  _10
REMARK    3  A    between atoms: _10  and  _11
REMARK    4  A    between atoms: _10  and  _13
REMARK    5  A    between atoms: _13  and  _14
REMARK    6  A    between atoms: _17  and  _19
REMARK    7  A    between atoms: _19  and  _20
REMARK    8  A    between atoms: _19  and  _22
REMARK    9  A    between atoms: _25  and  _27
REMARK   10  A    between atoms: _27  and  _28
REMARK   11  A    between atoms: _27  and  _30
REMARK   12  A    between atoms: _30  and  _31
REMARK   13  A    between atoms: _34  and  _36
REMARK   14  A    between atoms: _36  and  _37
REMARK   15  A    between atoms: _36  and  _39
REMARK   16  A    between atoms: _39  and  _40
REMARK   17  A    between atoms: _43  and  _45
REMARK   18  A    between atoms: _45  and  _46
REMARK   19  A    between atoms: _48  and  _50
REMARK   20  A    between atoms: _50  and  _51
REMARK   21  A    between atoms: _54  and  _56
REMARK   22  A    between atoms: _56  and  _57
REMARK   23  A    between atoms: _56  and  _59
REMARK   24  A    between atoms: _59  and  _60
REMARK   25  A    between atoms: _60  and  _61
REMARK   26  A    between atoms: _66  and  _68
REMARK   27  A    between atoms: _68  and  _69
REMARK   28  A    between atoms: _68  and  _71
REMARK   29  A    between atoms: _71  and  _72
REMARK   30  A    between atoms: _77  and  _79
REMARK   31  A    between atoms: _79  and  _80
REMARK   32  A    between atoms: _79  and  _82
REMARK   33  A    between atoms: _82  and  _83
REMARK   34  A    between atoms: _85  and  _87
REMARK   35  A    between atoms: _87  and  _88
REMARK   36  A    between atoms: _87  and  _90
REMARK   37  A    between atoms: _93  and  _95
REMARK   38  A    between atoms: _95  and  _96
REMARK   39  A    between atoms: _95  and  _98
REMARK   40  A    between atoms: _98  and  _99
REMARK   41  A    between atoms: _102  and  _104
REMARK   42  A    between atoms: _104  and  _105
REMARK   43  A    between atoms: _104  and  _107
REMARK   44  A    between atoms: _107  and  _108
REMARK   45  A    between atoms: _118  and  _120
REMARK   46  A    between atoms: _120  and  _121
REMARK   47  A    between atoms: _120  and  _123
REMARK   48  A    between atoms: _126  and  _128
REMARK   49  A    between atoms: _128  and  _129
REMARK   50  A    between atoms: _128  and  _131
REMARK   51  A    between atoms: _131  and  _132
REMARK   52  A    between atoms: _132  and  _133
REMARK   53  A    between atoms: _138  and  _140
REMARK   54  A    between atoms: _140  and  _141
REMARK   55  A    between atoms: _143  and  _145
REMARK   56  A    between atoms: _145  and  _146
REMARK   57  A    between atoms: _149  and  _151
REMARK   58  A    between atoms: _151  and  _152
REMARK   59  A    between atoms: _151  and  _154
REMARK   60  A    between atoms: _154  and  _155
REMARK   61  A    between atoms: _158  and  _160
REMARK   62  A    between atoms: _160  and  _161
REMARK   63  A    between atoms: _163  and  _165
REMARK   64  A    between atoms: _165  and  _166
REMARK   65  A    between atoms: _165  and  _168
REMARK   66  A    between atoms: _168  and  _169
REMARK   67  A    between atoms: _174  and  _175
REMARK   68  A    between atoms: _177  and  _179
REMARK   69  A    between atoms: _179  and  _180
REMARK   70  A    between atoms: _179  and  _182
REMARK   71  A    between atoms: _182  and  _183
REMARK   72  A    between atoms: _193  and  _195
REMARK   73  A    between atoms: _195  and  _196
REMARK   74  A    between atoms: _195  and  _198
REMARK   75  A    between atoms: _198  and  _199
REMARK   76  A    between atoms: _202  and  _204
REMARK   77  A    between atoms: _204  and  _205
REMARK   78  A    between atoms: _204  and  _207
REMARK   79  A    between atoms: _210  and  _212
REMARK   80  A    between atoms: _212  and  _213
REMARK   81  A    between atoms: _212  and  _215
REMARK   82  A    between atoms: _215  and  _216
REMARK   83  A    between atoms: _219  and  _221
REMARK   84  A    between atoms: _221  and  _222
REMARK   85  A    between atoms: _221  and  _224
REMARK   86  A    between atoms: _227  and  _228
REMARK   87  A    between atoms: _233  and  _235
REMARK   88  A    between atoms: _235  and  _236
REMARK   89  A    between atoms: _235  and  _238
REMARK   90  A    between atoms: _238  and  _239
REMARK   91  A    between atoms: _244  and  _245
REMARK   92  A    between atoms: _248  and  _249
REMARK   93  A    between atoms: _254  and  _256
REMARK   94  A    between atoms: _256  and  _257
REMARK   95  A    between atoms: _256  and  _259
REMARK   96  A    between atoms: _259  and  _260
REMARK   97  A    between atoms: _263  and  _265
REMARK   98  A    between atoms: _265  and  _266
REMARK   99  A    between atoms: _268  and  _270
REMARK  100  A    between atoms: _270  and  _271
REMARK  101  A    between atoms: _270  and  _273
REMARK  102  A    between atoms: _273  and  _274
REMARK  103  A    between atoms: _274  and  _275
REMARK  104  A    between atoms: _275  and  _276
REMARK  105  A    between atoms: _285  and  _287
REMARK  106  A    between atoms: _287  and  _288
REMARK  107  A    between atoms: _287  and  _290
REMARK  108  A    between atoms: _290  and  _291
REMARK  109  A    between atoms: _295  and  _296
REMARK  110  A    between atoms: _301  and  _303
REMARK  111  A    between atoms: _303  and  _304
REMARK  112  A    between atoms: _303  and  _306
REMARK  113  A    between atoms: _306  and  _307
REMARK  114  A    between atoms: _310  and  _312
REMARK  115  A    between atoms: _312  and  _313
REMARK  116  A    between atoms: _312  and  _315
REMARK  117  A    between atoms: _318  and  _320
REMARK  118  A    between atoms: _320  and  _321
REMARK  119  A    between atoms: _320  and  _323
REMARK  120  A    between atoms: _323  and  _324
REMARK  121  A    between atoms: _327  and  _329
REMARK  122  A    between atoms: _329  and  _330
REMARK  123  A    between atoms: _329  and  _332
REMARK  124  A    between atoms: _332  and  _333
REMARK  125  A    between atoms: _336  and  _338
REMARK  126  A    between atoms: _338  and  _339
REMARK  127  A    between atoms: _341  and  _343
REMARK  128  A    between atoms: _343  and  _344
REMARK  129  A    between atoms: _347  and  _349
REMARK  130  A    between atoms: _349  and  _350
REMARK  131  A    between atoms: _349  and  _352
REMARK  132  A    between atoms: _352  and  _353
REMARK  133  A    between atoms: _353  and  _354
REMARK  134  A    between atoms: _359  and  _361
REMARK  135  A    between atoms: _361  and  _362
REMARK  136  A    between atoms: _361  and  _364
REMARK  137  A    between atoms: _364  and  _365
REMARK  138  A    between atoms: _370  and  _372
REMARK  139  A    between atoms: _372  and  _373
REMARK  140  A    between atoms: _372  and  _375
REMARK  141  A    between atoms: _375  and  _376
REMARK  142  A    between atoms: _378  and  _380
REMARK  143  A    between atoms: _380  and  _381
REMARK  144  A    between atoms: _380  and  _383
REMARK  145  A    between atoms: _386  and  _388
REMARK  146  A    between atoms: _388  and  _389
REMARK  147  A    between atoms: _392  and  _394
REMARK  148  A    between atoms: _394  and  _395
REMARK  149  A    between atoms: _394  and  _397
REMARK  150  A    between atoms: _397  and  _398
REMARK  151  A    between atoms: _408  and  _410
REMARK  152  A    between atoms: _410  and  _411
REMARK  153  A    between atoms: _410  and  _413
REMARK  154  A    between atoms: _416  and  _418
REMARK  155  A    between atoms: _418  and  _419
REMARK  156  A    between atoms: _418  and  _421
REMARK  157  A    between atoms: _421  and  _422
REMARK  158  A    between atoms: _422  and  _423
REMARK  159  A    between atoms: _428  and  _430
REMARK  160  A    between atoms: _430  and  _431
REMARK  161  A    between atoms: _433  and  _435
REMARK  162  A    between atoms: _435  and  _436
REMARK  163  A    between atoms: _439  and  _441
REMARK  164  A    between atoms: _441  and  _442
REMARK  165  A    between atoms: _441  and  _444
REMARK  166  A    between atoms: _444  and  _445
REMARK  167  A    between atoms: _448  and  _450
REMARK  168  A    between atoms: _450  and  _451
REMARK  169  A    between atoms: _453  and  _455
REMARK  170  A    between atoms: _455  and  _456
REMARK  171  A    between atoms: _458  and  _460
REMARK  172  A    between atoms: _460  and  _461
REMARK  173  A    between atoms: _460  and  _463
REMARK  174  A    between atoms: _463  and  _464
REMARK  175  A    between atoms: _464  and  _465
REMARK  176  A    between atoms: _465  and  _466
REMARK  177  A    between atoms: _466  and  _467
REMARK  178  A    between atoms: _471  and  _473
REMARK  179  A    between atoms: _473  and  _474
REMARK  180  A    between atoms: _473  and  _476
REMARK  181  A    between atoms: _476  and  _477
REMARK  182  A    between atoms: _482  and  _483
REMARK  183  A    between atoms: _485  and  _487
REMARK  184  A    between atoms: _487  and  _488
REMARK  185  A    between atoms: _487  and  _490
REMARK  186  A    between atoms: _490  and  _491
REMARK  187  A    between atoms: _501  and  _503
REMARK  188  A    between atoms: _503  and  _504
REMARK  189  A    between atoms: _503  and  _506
REMARK  190  A    between atoms: _506  and  _507
REMARK  191  A    between atoms: _510  and  _512
REMARK  192  A    between atoms: _512  and  _513
REMARK  193  A    between atoms: _512  and  _515
REMARK  194  A    between atoms: _518  and  _520
REMARK  195  A    between atoms: _520  and  _521
REMARK  196  A    between atoms: _520  and  _523
REMARK  197  A    between atoms: _523  and  _524
REMARK  198  A    between atoms: _527  and  _529
REMARK  199  A    between atoms: _529  and  _530
REMARK  200  A    between atoms: _529  and  _532
REMARK  201  A    between atoms: _535  and  _536
REMARK  202  A    between atoms: _541  and  _543
REMARK  203  A    between atoms: _543  and  _544
REMARK  204  A    between atoms: _543  and  _546
REMARK  205  A    between atoms: _546  and  _547
REMARK  206  A    between atoms: _552  and  _553
REMARK  207  A    between atoms: _556  and  _557
REMARK  208  A    between atoms: _562  and  _564
REMARK  209  A    between atoms: _564  and  _565
REMARK  210  A    between atoms: _564  and  _567
REMARK  211  A    between atoms: _567  and  _568
REMARK  212  A    between atoms: _571  and  _573
REMARK  213  A    between atoms: _573  and  _574
REMARK  214  A    between atoms: _573  and  _576
REMARK  215  A    between atoms: _576  and  _577
REMARK  216  A    between atoms: _580  and  _582
REMARK  217  A    between atoms: _582  and  _583
REMARK  218  A    between atoms: _585  and  _587
REMARK  219  A    between atoms: _587  and  _588
REMARK  220  A    between atoms: _587  and  _590
REMARK  221  A    between atoms: _590  and  _591
REMARK  222  A    between atoms: _591  and  _592
REMARK  223  A    between atoms: _592  and  _593
REMARK  224  A    between atoms: _602  and  _604
REMARK  225  A    between atoms: _604  and  _605
REMARK  226  A    between atoms: _604  and  _607
REMARK  227  A    between atoms: _607  and  _608
REMARK                            x       y       z     vdW  Elec       q    Type
REMARK                         _______ _______ _______ _____ _____    ______ ____
ROOT
ATOM      1  O   HOH     1      -1.269   1.713  20.041  0.00  0.00    +0.000 OA
ENDROOT
TORSDOF 0
REMARK  Name = ../refined-set-2016/3sm2/3sm2_pocket.pdb
REMARK  227 active torsions:
REMARK  status: ('A' for Active; 'I' for Inactive)
REMARK    1  A    between atoms: _2  and  _3
REMARK    2  A    between atoms: _8  and  _10
REMARK    3  A    between atoms: _10  and  _11
REMARK    4  A    between atoms: _10  and  _13
REMARK    5  A    between atoms: _13  and  _14
REMARK    6  A    between atoms: _17  and  _19
REMARK    7  A    between atoms: _19  and  _20
REMARK    8  A    between atoms: _19  and  _22
REMARK    9  A    between atoms: _25  and  _27
REMARK   10  A    between atoms: _27  and  _28
REMARK   11  A    between atoms: _27  and  _30
REMARK   12  A    between atoms: _30  and  _31
REMARK   13  A    between atoms: _34  and  _36
REMARK   14  A    between atoms: _36  and  _37
REMARK   15  A    between atoms: _36  and  _39
REMARK   16  A    between atoms: _39  and  _40
REMARK   17  A    between atoms: _43  and  _45
REMARK   18  A    between atoms: _45  and  _46
REMARK   19  A    between atoms: _48  and  _50
REMARK   20  A    between atoms: _50  and  _51
REMARK   21  A    between atoms: _54  and  _56
REMARK   22  A    between atoms: _56  and  _57
REMARK   23  A    between atoms: _56  and  _59
REMARK   24  A    between atoms: _59  and  _60
REMARK   25  A    between atoms: _60  and  _61
REMARK   26  A    between atoms: _66  and  _68
REMARK   27  A    between atoms: _68  and  _69
REMARK   28  A    between atoms: _68  and  _71
REMARK   29  A    between atoms: _71  and  _72
REMARK   30  A    between atoms: _77  and  _79
REMARK   31  A    between atoms: _79  and  _80
REMARK   32  A    between atoms: _79  and  _82
REMARK   33  A    between atoms: _82  and  _83
REMARK   34  A    between atoms: _85  and  _87
REMARK   35  A    between atoms: _87  and  _88
REMARK   36  A    between atoms: _87  and  _90
REMARK   37  A    between atoms: _93  and  _95
REMARK   38  A    between atoms: _95  and  _96
REMARK   39  A    between atoms: _95  and  _98
REMARK   40  A    between atoms: _98  and  _99
REMARK   41  A    between atoms: _102  and  _104
REMARK   42  A    between atoms: _104  and  _105
REMARK   43  A    between atoms: _104  and  _107
REMARK   44  A    between atoms: _107  and  _108
REMARK   45  A    between atoms: _118  and  _120
REMARK   46  A    between atoms: _120  and  _121
REMARK   47  A    between atoms: _120  and  _123
REMARK   48  A    between atoms: _126  and  _128
REMARK   49  A    between atoms: _128  and  _129
REMARK   50  A    between atoms: _128  and  _131
REMARK   51  A    between atoms: _131  and  _132
REMARK   52  A    between atoms: _132  and  _133
REMARK   53  A    between atoms: _138  and  _140
REMARK   54  A    between atoms: _140  and  _141
REMARK   55  A    between atoms: _143  and  _145
REMARK   56  A    between atoms: _145  and  _146
REMARK   57  A    between atoms: _149  and  _151
REMARK   58  A    between atoms: _151  and  _152
REMARK   59  A    between atoms: _151  and  _154
REMARK   60  A    between atoms: _154  and  _155
REMARK   61  A    between atoms: _158  and  _160
REMARK   62  A    between atoms: _160  and  _161
REMARK   63  A    between atoms: _163  and  _165
REMARK   64  A    between atoms: _165  and  _166
REMARK   65  A    between atoms: _165  and  _168
REMARK   66  A    between atoms: _168  and  _169
REMARK   67  A    between atoms: _174  and  _175
REMARK   68  A    between atoms: _177  and  _179
REMARK   69  A    between atoms: _179  and  _180
REMARK   70  A    between atoms: _179  and  _182
REMARK   71  A    between atoms: _182  and  _183
REMARK   72  A    between atoms: _193  and  _195
REMARK   73  A    between atoms: _195  and  _196
REMARK   74  A    between atoms: _195  and  _198
REMARK   75  A    between atoms: _198  and  _199
REMARK   76  A    between atoms: _202  and  _204
REMARK   77  A    between atoms: _204  and  _205
REMARK   78  A    between atoms: _204  and  _207
REMARK   79  A    between atoms: _210  and  _212
REMARK   80  A    between atoms: _212  and  _213
REMARK   81  A    between atoms: _212  and  _215
REMARK   82  A    between atoms: _215  and  _216
REMARK   83  A    between atoms: _219  and  _221
REMARK   84  A    between atoms: _221  and  _222
REMARK   85  A    between atoms: _221  and  _224
REMARK   86  A    between atoms: _227  and  _228
REMARK   87  A    between atoms: _233  and  _235
REMARK   88  A    between atoms: _235  and  _236
REMARK   89  A    between atoms: _235  and  _238
REMARK   90  A    between atoms: _238  and  _239
REMARK   91  A    between atoms: _244  and  _245
REMARK   92  A    between atoms: _248  and  _249
REMARK   93  A    between atoms: _254  and  _256
REMARK   94  A    between atoms: _256  and  _257
REMARK   95  A    between atoms: _256  and  _259
REMARK   96  A    between atoms: _259  and  _260
REMARK   97  A    between atoms: _263  and  _265
REMARK   98  A    between atoms: _265  and  _266
REMARK   99  A    between atoms: _268  and  _270
REMARK  100  A    between atoms: _270  and  _271
REMARK  101  A    between atoms: _270  and  _273
REMARK  102  A    between atoms: _273  and  _274
REMARK  103  A    between atoms: _274  and  _275
REMARK  104  A    between atoms: _275  and  _276
REMARK  105  A    between atoms: _285  and  _287
REMARK  106  A    between atoms: _287  and  _288
REMARK  107  A    between atoms: _287  and  _290
REMARK  108  A    between atoms: _290  and  _291
REMARK  109  A    between atoms: _295  and  _296
REMARK  110  A    between atoms: _301  and  _303
REMARK  111  A    between atoms: _303  and  _304
REMARK  112  A    between atoms: _303  and  _306
REMARK  113  A    between atoms: _306  and  _307
REMARK  114  A    between atoms: _310  and  _312
REMARK  115  A    between atoms: _312  and  _313
REMARK  116  A    between atoms: _312  and  _315
REMARK  117  A    between atoms: _318  and  _320
REMARK  118  A    between atoms: _320  and  _321
REMARK  119  A    between atoms: _320  and  _323
REMARK  120  A    between atoms: _323  and  _324
REMARK  121  A    between atoms: _327  and  _329
REMARK  122  A    between atoms: _329  and  _330
REMARK  123  A    between atoms: _329  and  _332
REMARK  124  A    between atoms: _332  and  _333
REMARK  125  A    between atoms: _336  and  _338
REMARK  126  A    between atoms: _338  and  _339
REMARK  127  A    between atoms: _341  and  _343
REMARK  128  A    between atoms: _343  and  _344
REMARK  129  A    between atoms: _347  and  _349
REMARK  130  A    between atoms: _349  and  _350
REMARK  131  A    between atoms: _349  and  _352
REMARK  132  A    between atoms: _352  and  _353
REMARK  133  A    between atoms: _353  and  _354
REMARK  134  A    between atoms: _359  and  _361
REMARK  135  A    between atoms: _361  and  _362
REMARK  136  A    between atoms: _361  and  _364
REMARK  137  A    between atoms: _364  and  _365
REMARK  138  A    between atoms: _370  and  _372
REMARK  139  A    between atoms: _372  and  _373
REMARK  140  A    between atoms: _372  and  _375
REMARK  141  A    between atoms: _375  and  _376
REMARK  142  A    between atoms: _378  and  _380
REMARK  143  A    between atoms: _380  and  _381
REMARK  144  A    between atoms: _380  and  _383
REMARK  145  A    between atoms: _386  and  _388
REMARK  146  A    between atoms: _388  and  _389
REMARK  147  A    between atoms: _392  and  _394
REMARK  148  A    between atoms: _394  and  _395
REMARK  149  A    between atoms: _394  and  _397
REMARK  150  A    between atoms: _397  and  _398
REMARK  151  A    between atoms: _408  and  _410
REMARK  152  A    between atoms: _410  and  _411
REMARK  153  A    between atoms: _410  and  _413
REMARK  154  A    between atoms: _416  and  _418
REMARK  155  A    between atoms: _418  and  _419
REMARK  156  A    between atoms: _418  and  _421
REMARK  157  A    between atoms: _421  and  _422
REMARK  158  A    between atoms: _422  and  _423
REMARK  159  A    between atoms: _428  and  _430
REMARK  160  A    between atoms: _430  and  _431
REMARK  161  A    between atoms: _433  and  _435
REMARK  162  A    between atoms: _435  and  _436
REMARK  163  A    between atoms: _439  and  _441
REMARK  164  A    between atoms: _441  and  _442
REMARK  165  A    between atoms: _441  and  _444
REMARK  166  A    between atoms: _444  and  _445
REMARK  167  A    between atoms: _448  and  _450
REMARK  168  A    between atoms: _450  and  _451
REMARK  169  A    between atoms: _453  and  _455
REMARK  170  A    between atoms: _455  and  _456
REMARK  171  A    between atoms: _458  and  _460
REMARK  172  A    between atoms: _460  and  _461
REMARK  173  A    between atoms: _460  and  _463
REMARK  174  A    between atoms: _463  and  _464
REMARK  175  A    between atoms: _464  and  _465
REMARK  176  A    between atoms: _465  and  _466
REMARK  177  A    between atoms: _466  and  _467
REMARK  178  A    between atoms: _471  and  _473
REMARK  179  A    between atoms: _473  and  _474
REMARK  180  A    between atoms: _473  and  _476
REMARK  181  A    between atoms: _476  and  _477
REMARK  182  A    between atoms: _482  and  _483
REMARK  183  A    between atoms: _485  and  _487
REMARK  184  A    between atoms: _487  and  _488
REMARK  185  A    between atoms: _487  and  _490
REMARK  186  A    between atoms: _490  and  _491
REMARK  187  A    between atoms: _501  and  _503
REMARK  188  A    between atoms: _503  and  _504
REMARK  189  A    between atoms: _503  and  _506
REMARK  190  A    between atoms: _506  and  _507
REMARK  191  A    between atoms: _510  and  _512
REMARK  192  A    between atoms: _512  and  _513
REMARK  193  A    between atoms: _512  and  _515
REMARK  194  A    between atoms: _518  and  _520
REMARK  195  A    between atoms: _520  and  _521
REMARK  196  A    between atoms: _520  and  _523
REMARK  197  A    between atoms: _523  and  _524
REMARK  198  A    between atoms: _527  and  _529
REMARK  199  A    between atoms: _529  and  _530
REMARK  200  A    between atoms: _529  and  _532
REMARK  201  A    between atoms: _535  and  _536
REMARK  202  A    between atoms: _541  and  _543
REMARK  203  A    between atoms: _543  and  _544
REMARK  204  A    between atoms: _543  and  _546
REMARK  205  A    between atoms: _546  and  _547
REMARK  206  A    between atoms: _552  and  _553
REMARK  207  A    between atoms: _556  and  _557
REMARK  208  A    between atoms: _562  and  _564
REMARK  209  A    between atoms: _564  and  _565
REMARK  210  A    between atoms: _564  and  _567
REMARK  211  A    between atoms: _567  and  _568
REMARK  212  A    between atoms: _571  and  _573
REMARK  213  A    between atoms: _573  and  _574
REMARK  214  A    between atoms: _573  and  _576
REMARK  215  A    between atoms: _576  and  _577
REMARK  216  A    between atoms: _580  and  _582
REMARK  217  A    between atoms: _582  and  _583
REMARK  218  A    between atoms: _585  and  _587
REMARK  219  A    between atoms: _587  and  _588
REMARK  220  A    between atoms: _587  and  _590
REMARK  221  A    between atoms: _590  and  _591
REMARK  222  A    between atoms: _591  and  _592
REMARK  223  A    between atoms: _592  and  _593
REMARK  224  A    between atoms: _602  and  _604
REMARK  225  A    between atoms: _604  and  _605
REMARK  226  A    between atoms: _604  and  _607
REMARK  227  A    between atoms: _607  and  _608
REMARK                            x       y       z     vdW  Elec       q    Type
REMARK                         _______ _______ _______ _____ _____    ______ ____
ROOT
ATOM      1  O   HOH     1      -0.897   3.270  18.195  0.00  0.00    +0.000 OA
ENDROOT
TORSDOF 0
REMARK  Name = ../refined-set-2016/3sm2/3sm2_pocket.pdb
REMARK  227 active torsions:
REMARK  status: ('A' for Active; 'I' for Inactive)
REMARK    1  A    between atoms: _2  and  _3
REMARK    2  A    between atoms: _8  and  _10
REMARK    3  A    between atoms: _10  and  _11
REMARK    4  A    between atoms: _10  and  _13
REMARK    5  A    between atoms: _13  and  _14
REMARK    6  A    between atoms: _17  and  _19
REMARK    7  A    between atoms: _19  and  _20
REMARK    8  A    between atoms: _19  and  _22
REMARK    9  A    between atoms: _25  and  _27
REMARK   10  A    between atoms: _27  and  _28
REMARK   11  A    between atoms: _27  and  _30
REMARK   12  A    between atoms: _30  and  _31
REMARK   13  A    between atoms: _34  and  _36
REMARK   14  A    between atoms: _36  and  _37
REMARK   15  A    between atoms: _36  and  _39
REMARK   16  A    between atoms: _39  and  _40
REMARK   17  A    between atoms: _43  and  _45
REMARK   18  A    between atoms: _45  and  _46
REMARK   19  A    between atoms: _48  and  _50
REMARK   20  A    between atoms: _50  and  _51
REMARK   21  A    between atoms: _54  and  _56
REMARK   22  A    between atoms: _56  and  _57
REMARK   23  A    between atoms: _56  and  _59
REMARK   24  A    between atoms: _59  and  _60
REMARK   25  A    between atoms: _60  and  _61
REMARK   26  A    between atoms: _66  and  _68
REMARK   27  A    between atoms: _68  and  _69
REMARK   28  A    between atoms: _68  and  _71
REMARK   29  A    between atoms: _71  and  _72
REMARK   30  A    between atoms: _77  and  _79
REMARK   31  A    between atoms: _79  and  _80
REMARK   32  A    between atoms: _79  and  _82
REMARK   33  A    between atoms: _82  and  _83
REMARK   34  A    between atoms: _85  and  _87
REMARK   35  A    between atoms: _87  and  _88
REMARK   36  A    between atoms: _87  and  _90
REMARK   37  A    between atoms: _93  and  _95
REMARK   38  A    between atoms: _95  and  _96
REMARK   39  A    between atoms: _95  and  _98
REMARK   40  A    between atoms: _98  and  _99
REMARK   41  A    between atoms: _102  and  _104
REMARK   42  A    between atoms: _104  and  _105
REMARK   43  A    between atoms: _104  and  _107
REMARK   44  A    between atoms: _107  and  _108
REMARK   45  A    between atoms: _118  and  _120
REMARK   46  A    between atoms: _120  and  _121
REMARK   47  A    between atoms: _120  and  _123
REMARK   48  A    between atoms: _126  and  _128
REMARK   49  A    between atoms: _128  and  _129
REMARK   50  A    between atoms: _128  and  _131
REMARK   51  A    between atoms: _131  and  _132
REMARK   52  A    between atoms: _132  and  _133
REMARK   53  A    between atoms: _138  and  _140
REMARK   54  A    between atoms: _140  and  _141
REMARK   55  A    between atoms: _143  and  _145
REMARK   56  A    between atoms: _145  and  _146
REMARK   57  A    between atoms: _149  and  _151
REMARK   58  A    between atoms: _151  and  _152
REMARK   59  A    between atoms: _151  and  _154
REMARK   60  A    between atoms: _154  and  _155
REMARK   61  A    between atoms: _158  and  _160
REMARK   62  A    between atoms: _160  and  _161
REMARK   63  A    between atoms: _163  and  _165
REMARK   64  A    between atoms: _165  and  _166
REMARK   65  A    between atoms: _165  and  _168
REMARK   66  A    between atoms: _168  and  _169
REMARK   67  A    between atoms: _174  and  _175
REMARK   68  A    between atoms: _177  and  _179
REMARK   69  A    between atoms: _179  and  _180
REMARK   70  A    between atoms: _179  and  _182
REMARK   71  A    between atoms: _182  and  _183
REMARK   72  A    between atoms: _193  and  _195
REMARK   73  A    between atoms: _195  and  _196
REMARK   74  A    between atoms: _195  and  _198
REMARK   75  A    between atoms: _198  and  _199
REMARK   76  A    between atoms: _202  and  _204
REMARK   77  A    between atoms: _204  and  _205
REMARK   78  A    between atoms: _204  and  _207
REMARK   79  A    between atoms: _210  and  _212
REMARK   80  A    between atoms: _212  and  _213
REMARK   81  A    between atoms: _212  and  _215
REMARK   82  A    between atoms: _215  and  _216
REMARK   83  A    between atoms: _219  and  _221
REMARK   84  A    between atoms: _221  and  _222
REMARK   85  A    between atoms: _221  and  _224
REMARK   86  A    between atoms: _227  and  _228
REMARK   87  A    between atoms: _233  and  _235
REMARK   88  A    between atoms: _235  and  _236
REMARK   89  A    between atoms: _235  and  _238
REMARK   90  A    between atoms: _238  and  _239
REMARK   91  A    between atoms: _244  and  _245
REMARK   92  A    between atoms: _248  and  _249
REMARK   93  A    between atoms: _254  and  _256
REMARK   94  A    between atoms: _256  and  _257
REMARK   95  A    between atoms: _256  and  _259
REMARK   96  A    between atoms: _259  and  _260
REMARK   97  A    between atoms: _263  and  _265
REMARK   98  A    between atoms: _265  and  _266
REMARK   99  A    between atoms: _268  and  _270
REMARK  100  A    between atoms: _270  and  _271
REMARK  101  A    between atoms: _270  and  _273
REMARK  102  A    between atoms: _273  and  _274
REMARK  103  A    between atoms: _274  and  _275
REMARK  104  A    between atoms: _275  and  _276
REMARK  105  A    between atoms: _285  and  _287
REMARK  106  A    between atoms: _287  and  _288
REMARK  107  A    between atoms: _287  and  _290
REMARK  108  A    between atoms: _290  and  _291
REMARK  109  A    between atoms: _295  and  _296
REMARK  110  A    between atoms: _301  and  _303
REMARK  111  A    between atoms: _303  and  _304
REMARK  112  A    between atoms: _303  and  _306
REMARK  113  A    between atoms: _306  and  _307
REMARK  114  A    between atoms: _310  and  _312
REMARK  115  A    between atoms: _312  and  _313
REMARK  116  A    between atoms: _312  and  _315
REMARK  117  A    between atoms: _318  and  _320
REMARK  118  A    between atoms: _320  and  _321
REMARK  119  A    between atoms: _320  and  _323
REMARK  120  A    between atoms: _323  and  _324
REMARK  121  A    between atoms: _327  and  _329
REMARK  122  A    between atoms: _329  and  _330
REMARK  123  A    between atoms: _329  and  _332
REMARK  124  A    between atoms: _332  and  _333
REMARK  125  A    between atoms: _336  and  _338
REMARK  126  A    between atoms: _338  and  _339
REMARK  127  A    between atoms: _341  and  _343
REMARK  128  A    between atoms: _343  and  _344
REMARK  129  A    between atoms: _347  and  _349
REMARK  130  A    between atoms: _349  and  _350
REMARK  131  A    between atoms: _349  and  _352
REMARK  132  A    between atoms: _352  and  _353
REMARK  133  A    between atoms: _353  and  _354
REMARK  134  A    between atoms: _359  and  _361
REMARK  135  A    between atoms: _361  and  _362
REMARK  136  A    between atoms: _361  and  _364
REMARK  137  A    between atoms: _364  and  _365
REMARK  138  A    between atoms: _370  and  _372
REMARK  139  A    between atoms: _372  and  _373
REMARK  140  A    between atoms: _372  and  _375
REMARK  141  A    between atoms: _375  and  _376
REMARK  142  A    between atoms: _378  and  _380
REMARK  143  A    between atoms: _380  and  _381
REMARK  144  A    between atoms: _380  and  _383
REMARK  145  A    between atoms: _386  and  _388
REMARK  146  A    between atoms: _388  and  _389
REMARK  147  A    between atoms: _392  and  _394
REMARK  148  A    between atoms: _394  and  _395
REMARK  149  A    between atoms: _394  and  _397
REMARK  150  A    between atoms: _397  and  _398
REMARK  151  A    between atoms: _408  and  _410
REMARK  152  A    between atoms: _410  and  _411
REMARK  153  A    between atoms: _410  and  _413
REMARK  154  A    between atoms: _416  and  _418
REMARK  155  A    between atoms: _418  and  _419
REMARK  156  A    between atoms: _418  and  _421
REMARK  157  A    between atoms: _421  and  _422
REMARK  158  A    between atoms: _422  and  _423
REMARK  159  A    between atoms: _428  and  _430
REMARK  160  A    between atoms: _430  and  _431
REMARK  161  A    between atoms: _433  and  _435
REMARK  162  A    between atoms: _435  and  _436
REMARK  163  A    between atoms: _439  and  _441
REMARK  164  A    between atoms: _441  and  _442
REMARK  165  A    between atoms: _441  and  _444
REMARK  166  A    between atoms: _444  and  _445
REMARK  167  A    between atoms: _448  and  _450
REMARK  168  A    between atoms: _450  and  _451
REMARK  169  A    between atoms: _453  and  _455
REMARK  170  A    between atoms: _455  and  _456
REMARK  171  A    between atoms: _458  and  _460
REMARK  172  A    between atoms: _460  and  _461
REMARK  173  A    between atoms: _460  and  _463
REMARK  174  A    between atoms: _463  and  _464
REMARK  175  A    between atoms: _464  and  _465
REMARK  176  A    between atoms: _465  and  _466
REMARK  177  A    between atoms: _466  and  _467
REMARK  178  A    between atoms: _471  and  _473
REMARK  179  A    between atoms: _473  and  _474
REMARK  180  A    between atoms: _473  and  _476
REMARK  181  A    between atoms: _476  and  _477
REMARK  182  A    between atoms: _482  and  _483
REMARK  183  A    between atoms: _485  and  _487
REMARK  184  A    between atoms: _487  and  _488
REMARK  185  A    between atoms: _487  and  _490
REMARK  186  A    between atoms: _490  and  _491
REMARK  187  A    between atoms: _501  and  _503
REMARK  188  A    between atoms: _503  and  _504
REMARK  189  A    between atoms: _503  and  _506
REMARK  190  A    between atoms: _506  and  _507
REMARK  191  A    between atoms: _510  and  _512
REMARK  192  A    between atoms: _512  and  _513
REMARK  193  A    between atoms: _512  and  _515
REMARK  194  A    between atoms: _518  and  _520
REMARK  195  A    between atoms: _520  and  _521
REMARK  196  A    between atoms: _520  and  _523
REMARK  197  A    between atoms: _523  and  _524
REMARK  198  A    between atoms: _527  and  _529
REMARK  199  A    between atoms: _529  and  _530
REMARK  200  A    between atoms: _529  and  _532
REMARK  201  A    between atoms: _535  and  _536
REMARK  202  A    between atoms: _541  and  _543
REMARK  203  A    between atoms: _543  and  _544
REMARK  204  A    between atoms: _543  and  _546
REMARK  205  A    between atoms: _546  and  _547
REMARK  206  A    between atoms: _552  and  _553
REMARK  207  A    between atoms: _556  and  _557
REMARK  208  A    between atoms: _562  and  _564
REMARK  209  A    between atoms: _564  and  _565
REMARK  210  A    between atoms: _564  and  _567
REMARK  211  A    between atoms: _567  and  _568
REMARK  212  A    between atoms: _571  and  _573
REMARK  213  A    between atoms: _573  and  _574
REMARK  214  A    between atoms: _573  and  _576
REMARK  215  A    between atoms: _576  and  _577
REMARK  216  A    between atoms: _580  and  _582
REMARK  217  A    between atoms: _582  and  _583
REMARK  218  A    between atoms: _585  and  _587
REMARK  219  A    between atoms: _587  and  _588
REMARK  220  A    between atoms: _587  and  _590
REMARK  221  A    between atoms: _590  and  _591
REMARK  222  A    between atoms: _591  and  _592
REMARK  223  A    between atoms: _592  and  _593
REMARK  224  A    between atoms: _602  and  _604
REMARK  225  A    between atoms: _604  and  _605
REMARK  226  A    between atoms: _604  and  _607
REMARK  227  A    between atoms: _607  and  _608
REMARK                            x       y       z     vdW  Elec       q    Type
REMARK                         _______ _______ _______ _____ _____    ______ ____
ROOT
ATOM      1  O   HOH     1       0.310   3.411  15.923  0.00  0.00    +0.000 OA
ENDROOT
TORSDOF 0
REMARK  Name = ../refined-set-2016/3sm2/3sm2_pocket.pdb
REMARK  227 active torsions:
REMARK  status: ('A' for Active; 'I' for Inactive)
REMARK    1  A    between atoms: _2  and  _3
REMARK    2  A    between atoms: _8  and  _10
REMARK    3  A    between atoms: _10  and  _11
REMARK    4  A    between atoms: _10  and  _13
REMARK    5  A    between atoms: _13  and  _14
REMARK    6  A    between atoms: _17  and  _19
REMARK    7  A    between atoms: _19  and  _20
REMARK    8  A    between atoms: _19  and  _22
REMARK    9  A    between atoms: _25  and  _27
REMARK   10  A    between atoms: _27  and  _28
REMARK   11  A    between atoms: _27  and  _30
REMARK   12  A    between atoms: _30  and  _31
REMARK   13  A    between atoms: _34  and  _36
REMARK   14  A    between atoms: _36  and  _37
REMARK   15  A    between atoms: _36  and  _39
REMARK   16  A    between atoms: _39  and  _40
REMARK   17  A    between atoms: _43  and  _45
REMARK   18  A    between atoms: _45  and  _46
REMARK   19  A    between atoms: _48  and  _50
REMARK   20  A    between atoms: _50  and  _51
REMARK   21  A    between atoms: _54  and  _56
REMARK   22  A    between atoms: _56  and  _57
REMARK   23  A    between atoms: _56  and  _59
REMARK   24  A    between atoms: _59  and  _60
REMARK   25  A    between atoms: _60  and  _61
REMARK   26  A    between atoms: _66  and  _68
REMARK   27  A    between atoms: _68  and  _69
REMARK   28  A    between atoms: _68  and  _71
REMARK   29  A    between atoms: _71  and  _72
REMARK   30  A    between atoms: _77  and  _79
REMARK   31  A    between atoms: _79  and  _80
REMARK   32  A    between atoms: _79  and  _82
REMARK   33  A    between atoms: _82  and  _83
REMARK   34  A    between atoms: _85  and  _87
REMARK   35  A    between atoms: _87  and  _88
REMARK   36  A    between atoms: _87  and  _90
REMARK   37  A    between atoms: _93  and  _95
REMARK   38  A    between atoms: _95  and  _96
REMARK   39  A    between atoms: _95  and  _98
REMARK   40  A    between atoms: _98  and  _99
REMARK   41  A    between atoms: _102  and  _104
REMARK   42  A    between atoms: _104  and  _105
REMARK   43  A    between atoms: _104  and  _107
REMARK   44  A    between atoms: _107  and  _108
REMARK   45  A    between atoms: _118  and  _120
REMARK   46  A    between atoms: _120  and  _121
REMARK   47  A    between atoms: _120  and  _123
REMARK   48  A    between atoms: _126  and  _128
REMARK   49  A    between atoms: _128  and  _129
REMARK   50  A    between atoms: _128  and  _131
REMARK   51  A    between atoms: _131  and  _132
REMARK   52  A    between atoms: _132  and  _133
REMARK   53  A    between atoms: _138  and  _140
REMARK   54  A    between atoms: _140  and  _141
REMARK   55  A    between atoms: _143  and  _145
REMARK   56  A    between atoms: _145  and  _146
REMARK   57  A    between atoms: _149  and  _151
REMARK   58  A    between atoms: _151  and  _152
REMARK   59  A    between atoms: _151  and  _154
REMARK   60  A    between atoms: _154  and  _155
REMARK   61  A    between atoms: _158  and  _160
REMARK   62  A    between atoms: _160  and  _161
REMARK   63  A    between atoms: _163  and  _165
REMARK   64  A    between atoms: _165  and  _166
REMARK   65  A    between atoms: _165  and  _168
REMARK   66  A    between atoms: _168  and  _169
REMARK   67  A    between atoms: _174  and  _175
REMARK   68  A    between atoms: _177  and  _179
REMARK   69  A    between atoms: _179  and  _180
REMARK   70  A    between atoms: _179  and  _182
REMARK   71  A    between atoms: _182  and  _183
REMARK   72  A    between atoms: _193  and  _195
REMARK   73  A    between atoms: _195  and  _196
REMARK   74  A    between atoms: _195  and  _198
REMARK   75  A    between atoms: _198  and  _199
REMARK   76  A    between atoms: _202  and  _204
REMARK   77  A    between atoms: _204  and  _205
REMARK   78  A    between atoms: _204  and  _207
REMARK   79  A    between atoms: _210  and  _212
REMARK   80  A    between atoms: _212  and  _213
REMARK   81  A    between atoms: _212  and  _215
REMARK   82  A    between atoms: _215  and  _216
REMARK   83  A    between atoms: _219  and  _221
REMARK   84  A    between atoms: _221  and  _222
REMARK   85  A    between atoms: _221  and  _224
REMARK   86  A    between atoms: _227  and  _228
REMARK   87  A    between atoms: _233  and  _235
REMARK   88  A    between atoms: _235  and  _236
REMARK   89  A    between atoms: _235  and  _238
REMARK   90  A    between atoms: _238  and  _239
REMARK   91  A    between atoms: _244  and  _245
REMARK   92  A    between atoms: _248  and  _249
REMARK   93  A    between atoms: _254  and  _256
REMARK   94  A    between atoms: _256  and  _257
REMARK   95  A    between atoms: _256  and  _259
REMARK   96  A    between atoms: _259  and  _260
REMARK   97  A    between atoms: _263  and  _265
REMARK   98  A    between atoms: _265  and  _266
REMARK   99  A    between atoms: _268  and  _270
REMARK  100  A    between atoms: _270  and  _271
REMARK  101  A    between atoms: _270  and  _273
REMARK  102  A    between atoms: _273  and  _274
REMARK  103  A    between atoms: _274  and  _275
REMARK  104  A    between atoms: _275  and  _276
REMARK  105  A    between atoms: _285  and  _287
REMARK  106  A    between atoms: _287  and  _288
REMARK  107  A    between atoms: _287  and  _290
REMARK  108  A    between atoms: _290  and  _291
REMARK  109  A    between atoms: _295  and  _296
REMARK  110  A    between atoms: _301  and  _303
REMARK  111  A    between atoms: _303  and  _304
REMARK  112  A    between atoms: _303  and  _306
REMARK  113  A    between atoms: _306  and  _307
REMARK  114  A    between atoms: _310  and  _312
REMARK  115  A    between atoms: _312  and  _313
REMARK  116  A    between atoms: _312  and  _315
REMARK  117  A    between atoms: _318  and  _320
REMARK  118  A    between atoms: _320  and  _321
REMARK  119  A    between atoms: _320  and  _323
REMARK  120  A    between atoms: _323  and  _324
REMARK  121  A    between atoms: _327  and  _329
REMARK  122  A    between atoms: _329  and  _330
REMARK  123  A    between atoms: _329  and  _332
REMARK  124  A    between atoms: _332  and  _333
REMARK  125  A    between atoms: _336  and  _338
REMARK  126  A    between atoms: _338  and  _339
REMARK  127  A    between atoms: _341  and  _343
REMARK  128  A    between atoms: _343  and  _344
REMARK  129  A    between atoms: _347  and  _349
REMARK  130  A    between atoms: _349  and  _350
REMARK  131  A    between atoms: _349  and  _352
REMARK  132  A    between atoms: _352  and  _353
REMARK  133  A    between atoms: _353  and  _354
REMARK  134  A    between atoms: _359  and  _361
REMARK  135  A    between atoms: _361  and  _362
REMARK  136  A    between atoms: _361  and  _364
REMARK  137  A    between atoms: _364  and  _365
REMARK  138  A    between atoms: _370  and  _372
REMARK  139  A    between atoms: _372  and  _373
REMARK  140  A    between atoms: _372  and  _375
REMARK  141  A    between atoms: _375  and  _376
REMARK  142  A    between atoms: _378  and  _380
REMARK  143  A    between atoms: _380  and  _381
REMARK  144  A    between atoms: _380  and  _383
REMARK  145  A    between atoms: _386  and  _388
REMARK  146  A    between atoms: _388  and  _389
REMARK  147  A    between atoms: _392  and  _394
REMARK  148  A    between atoms: _394  and  _395
REMARK  149  A    between atoms: _394  and  _397
REMARK  150  A    between atoms: _397  and  _398
REMARK  151  A    between atoms: _408  and  _410
REMARK  152  A    between atoms: _410  and  _411
REMARK  153  A    between atoms: _410  and  _413
REMARK  154  A    between atoms: _416  and  _418
REMARK  155  A    between atoms: _418  and  _419
REMARK  156  A    between atoms: _418  and  _421
REMARK  157  A    between atoms: _421  and  _422
REMARK  158  A    between atoms: _422  and  _423
REMARK  159  A    between atoms: _428  and  _430
REMARK  160  A    between atoms: _430  and  _431
REMARK  161  A    between atoms: _433  and  _435
REMARK  162  A    between atoms: _435  and  _436
REMARK  163  A    between atoms: _439  and  _441
REMARK  164  A    between atoms: _441  and  _442
REMARK  165  A    between atoms: _441  and  _444
REMARK  166  A    between atoms: _444  and  _445
REMARK  167  A    between atoms: _448  and  _450
REMARK  168  A    between atoms: _450  and  _451
REMARK  169  A    between atoms: _453  and  _455
REMARK  170  A    between atoms: _455  and  _456
REMARK  171  A    between atoms: _458  and  _460
REMARK  172  A    between atoms: _460  and  _461
REMARK  173  A    between atoms: _460  and  _463
REMARK  174  A    between atoms: _463  and  _464
REMARK  175  A    between atoms: _464  and  _465
REMARK  176  A    between atoms: _465  and  _466
REMARK  177  A    between atoms: _466  and  _467
REMARK  178  A    between atoms: _471  and  _473
REMARK  179  A    between atoms: _473  and  _474
REMARK  180  A    between atoms: _473  and  _476
REMARK  181  A    between atoms: _476  and  _477
REMARK  182  A    between atoms: _482  and  _483
REMARK  183  A    between atoms: _485  and  _487
REMARK  184  A    between atoms: _487  and  _488
REMARK  185  A    between atoms: _487  and  _490
REMARK  186  A    between atoms: _490  and  _491
REMARK  187  A    between atoms: _501  and  _503
REMARK  188  A    between atoms: _503  and  _504
REMARK  189  A    between atoms: _503  and  _506
REMARK  190  A    between atoms: _506  and  _507
REMARK  191  A    between atoms: _510  and  _512
REMARK  192  A    between atoms: _512  and  _513
REMARK  193  A    between atoms: _512  and  _515
REMARK  194  A    between atoms: _518  and  _520
REMARK  195  A    between atoms: _520  and  _521
REMARK  196  A    between atoms: _520  and  _523
REMARK  197  A    between atoms: _523  and  _524
REMARK  198  A    between atoms: _527  and  _529
REMARK  199  A    between atoms: _529  and  _530
REMARK  200  A    between atoms: _529  and  _532
REMARK  201  A    between atoms: _535  and  _536
REMARK  202  A    between atoms: _541  and  _543
REMARK  203  A    between atoms: _543  and  _544
REMARK  204  A    between atoms: _543  and  _546
REMARK  205  A    between atoms: _546  and  _547
REMARK  206  A    between atoms: _552  and  _553
REMARK  207  A    between atoms: _556  and  _557
REMARK  208  A    between atoms: _562  and  _564
REMARK  209  A    between atoms: _564  and  _565
REMARK  210  A    between atoms: _564  and  _567
REMARK  211  A    between atoms: _567  and  _568
REMARK  212  A    between atoms: _571  and  _573
REMARK  213  A    between atoms: _573  and  _574
REMARK  214  A    between atoms: _573  and  _576
REMARK  215  A    between atoms: _576  and  _577
REMARK  216  A    between atoms: _580  and  _582
REMARK  217  A    between atoms: _582  and  _583
REMARK  218  A    between atoms: _585  and  _587
REMARK  219  A    between atoms: _587  and  _588
REMARK  220  A    between atoms: _587  and  _590
REMARK  221  A    between atoms: _590  and  _591
REMARK  222  A    between atoms: _591  and  _592
REMARK  223  A    between atoms: _592  and  _593
REMARK  224  A    between atoms: _602  and  _604
REMARK  225  A    between atoms: _604  and  _605
REMARK  226  A    between atoms: _604  and  _607
REMARK  227  A    between atoms: _607  and  _608
REMARK                            x       y       z     vdW  Elec       q    Type
REMARK                         _______ _______ _______ _____ _____    ______ ____
ROOT
ATOM      1  O   HOH     1       1.267  -5.054  20.043  0.00  0.00    +0.000 OA
ENDROOT
TORSDOF 0
REMARK  Name = ../refined-set-2016/3sm2/3sm2_pocket.pdb
REMARK  227 active torsions:
REMARK  status: ('A' for Active; 'I' for Inactive)
REMARK    1  A    between atoms: _2  and  _3
REMARK    2  A    between atoms: _8  and  _10
REMARK    3  A    between atoms: _10  and  _11
REMARK    4  A    between atoms: _10  and  _13
REMARK    5  A    between atoms: _13  and  _14
REMARK    6  A    between atoms: _17  and  _19
REMARK    7  A    between atoms: _19  and  _20
REMARK    8  A    between atoms: _19  and  _22
REMARK    9  A    between atoms: _25  and  _27
REMARK   10  A    between atoms: _27  and  _28
REMARK   11  A    between atoms: _27  and  _30
REMARK   12  A    between atoms: _30  and  _31
REMARK   13  A    between atoms: _34  and  _36
REMARK   14  A    between atoms: _36  and  _37
REMARK   15  A    between atoms: _36  and  _39
REMARK   16  A    between atoms: _39  and  _40
REMARK   17  A    between atoms: _43  and  _45
REMARK   18  A    between atoms: _45  and  _46
REMARK   19  A    between atoms: _48  and  _50
REMARK   20  A    between atoms: _50  and  _51
REMARK   21  A    between atoms: _54  and  _56
REMARK   22  A    between atoms: _56  and  _57
REMARK   23  A    between atoms: _56  and  _59
REMARK   24  A    between atoms: _59  and  _60
REMARK   25  A    between atoms: _60  and  _61
REMARK   26  A    between atoms: _66  and  _68
REMARK   27  A    between atoms: _68  and  _69
REMARK   28  A    between atoms: _68  and  _71
REMARK   29  A    between atoms: _71  and  _72
REMARK   30  A    between atoms: _77  and  _79
REMARK   31  A    between atoms: _79  and  _80
REMARK   32  A    between atoms: _79  and  _82
REMARK   33  A    between atoms: _82  and  _83
REMARK   34  A    between atoms: _85  and  _87
REMARK   35  A    between atoms: _87  and  _88
REMARK   36  A    between atoms: _87  and  _90
REMARK   37  A    between atoms: _93  and  _95
REMARK   38  A    between atoms: _95  and  _96
REMARK   39  A    between atoms: _95  and  _98
REMARK   40  A    between atoms: _98  and  _99
REMARK   41  A    between atoms: _102  and  _104
REMARK   42  A    between atoms: _104  and  _105
REMARK   43  A    between atoms: _104  and  _107
REMARK   44  A    between atoms: _107  and  _108
REMARK   45  A    between atoms: _118  and  _120
REMARK   46  A    between atoms: _120  and  _121
REMARK   47  A    between atoms: _120  and  _123
REMARK   48  A    between atoms: _126  and  _128
REMARK   49  A    between atoms: _128  and  _129
REMARK   50  A    between atoms: _128  and  _131
REMARK   51  A    between atoms: _131  and  _132
REMARK   52  A    between atoms: _132  and  _133
REMARK   53  A    between atoms: _138  and  _140
REMARK   54  A    between atoms: _140  and  _141
REMARK   55  A    between atoms: _143  and  _145
REMARK   56  A    between atoms: _145  and  _146
REMARK   57  A    between atoms: _149  and  _151
REMARK   58  A    between atoms: _151  and  _152
REMARK   59  A    between atoms: _151  and  _154
REMARK   60  A    between atoms: _154  and  _155
REMARK   61  A    between atoms: _158  and  _160
REMARK   62  A    between atoms: _160  and  _161
REMARK   63  A    between atoms: _163  and  _165
REMARK   64  A    between atoms: _165  and  _166
REMARK   65  A    between atoms: _165  and  _168
REMARK   66  A    between atoms: _168  and  _169
REMARK   67  A    between atoms: _174  and  _175
REMARK   68  A    between atoms: _177  and  _179
REMARK   69  A    between atoms: _179  and  _180
REMARK   70  A    between atoms: _179  and  _182
REMARK   71  A    between atoms: _182  and  _183
REMARK   72  A    between atoms: _193  and  _195
REMARK   73  A    between atoms: _195  and  _196
REMARK   74  A    between atoms: _195  and  _198
REMARK   75  A    between atoms: _198  and  _199
REMARK   76  A    between atoms: _202  and  _204
REMARK   77  A    between atoms: _204  and  _205
REMARK   78  A    between atoms: _204  and  _207
REMARK   79  A    between atoms: _210  and  _212
REMARK   80  A    between atoms: _212  and  _213
REMARK   81  A    between atoms: _212  and  _215
REMARK   82  A    between atoms: _215  and  _216
REMARK   83  A    between atoms: _219  and  _221
REMARK   84  A    between atoms: _221  and  _222
REMARK   85  A    between atoms: _221  and  _224
REMARK   86  A    between atoms: _227  and  _228
REMARK   87  A    between atoms: _233  and  _235
REMARK   88  A    between atoms: _235  and  _236
REMARK   89  A    between atoms: _235  and  _238
REMARK   90  A    between atoms: _238  and  _239
REMARK   91  A    between atoms: _244  and  _245
REMARK   92  A    between atoms: _248  and  _249
REMARK   93  A    between atoms: _254  and  _256
REMARK   94  A    between atoms: _256  and  _257
REMARK   95  A    between atoms: _256  and  _259
REMARK   96  A    between atoms: _259  and  _260
REMARK   97  A    between atoms: _263  and  _265
REMARK   98  A    between atoms: _265  and  _266
REMARK   99  A    between atoms: _268  and  _270
REMARK  100  A    between atoms: _270  and  _271
REMARK  101  A    between atoms: _270  and  _273
REMARK  102  A    between atoms: _273  and  _274
REMARK  103  A    between atoms: _274  and  _275
REMARK  104  A    between atoms: _275  and  _276
REMARK  105  A    between atoms: _285  and  _287
REMARK  106  A    between atoms: _287  and  _288
REMARK  107  A    between atoms: _287  and  _290
REMARK  108  A    between atoms: _290  and  _291
REMARK  109  A    between atoms: _295  and  _296
REMARK  110  A    between atoms: _301  and  _303
REMARK  111  A    between atoms: _303  and  _304
REMARK  112  A    between atoms: _303  and  _306
REMARK  113  A    between atoms: _306  and  _307
REMARK  114  A    between atoms: _310  and  _312
REMARK  115  A    between atoms: _312  and  _313
REMARK  116  A    between atoms: _312  and  _315
REMARK  117  A    between atoms: _318  and  _320
REMARK  118  A    between atoms: _320  and  _321
REMARK  119  A    between atoms: _320  and  _323
REMARK  120  A    between atoms: _323  and  _324
REMARK  121  A    between atoms: _327  and  _329
REMARK  122  A    between atoms: _329  and  _330
REMARK  123  A    between atoms: _329  and  _332
REMARK  124  A    between atoms: _332  and  _333
REMARK  125  A    between atoms: _336  and  _338
REMARK  126  A    between atoms: _338  and  _339
REMARK  127  A    between atoms: _341  and  _343
REMARK  128  A    between atoms: _343  and  _344
REMARK  129  A    between atoms: _347  and  _349
REMARK  130  A    between atoms: _349  and  _350
REMARK  131  A    between atoms: _349  and  _352
REMARK  132  A    between atoms: _352  and  _353
REMARK  133  A    between atoms: _353  and  _354
REMARK  134  A    between atoms: _359  and  _361
REMARK  135  A    between atoms: _361  and  _362
REMARK  136  A    between atoms: _361  and  _364
REMARK  137  A    between atoms: _364  and  _365
REMARK  138  A    between atoms: _370  and  _372
REMARK  139  A    between atoms: _372  and  _373
REMARK  140  A    between atoms: _372  and  _375
REMARK  141  A    between atoms: _375  and  _376
REMARK  142  A    between atoms: _378  and  _380
REMARK  143  A    between atoms: _380  and  _381
REMARK  144  A    between atoms: _380  and  _383
REMARK  145  A    between atoms: _386  and  _388
REMARK  146  A    between atoms: _388  and  _389
REMARK  147  A    between atoms: _392  and  _394
REMARK  148  A    between atoms: _394  and  _395
REMARK  149  A    between atoms: _394  and  _397
REMARK  150  A    between atoms: _397  and  _398
REMARK  151  A    between atoms: _408  and  _410
REMARK  152  A    between atoms: _410  and  _411
REMARK  153  A    between atoms: _410  and  _413
REMARK  154  A    between atoms: _416  and  _418
REMARK  155  A    between atoms: _418  and  _419
REMARK  156  A    between atoms: _418  and  _421
REMARK  157  A    between atoms: _421  and  _422
REMARK  158  A    between atoms: _422  and  _423
REMARK  159  A    between atoms: _428  and  _430
REMARK  160  A    between atoms: _430  and  _431
REMARK  161  A    between atoms: _433  and  _435
REMARK  162  A    between atoms: _435  and  _436
REMARK  163  A    between atoms: _439  and  _441
REMARK  164  A    between atoms: _441  and  _442
REMARK  165  A    between atoms: _441  and  _444
REMARK  166  A    between atoms: _444  and  _445
REMARK  167  A    between atoms: _448  and  _450
REMARK  168  A    between atoms: _450  and  _451
REMARK  169  A    between atoms: _453  and  _455
REMARK  170  A    between atoms: _455  and  _456
REMARK  171  A    between atoms: _458  and  _460
REMARK  172  A    between atoms: _460  and  _461
REMARK  173  A    between atoms: _460  and  _463
REMARK  174  A    between atoms: _463  and  _464
REMARK  175  A    between atoms: _464  and  _465
REMARK  176  A    between atoms: _465  and  _466
REMARK  177  A    between atoms: _466  and  _467
REMARK  178  A    between atoms: _471  and  _473
REMARK  179  A    between atoms: _473  and  _474
REMARK  180  A    between atoms: _473  and  _476
REMARK  181  A    between atoms: _476  and  _477
REMARK  182  A    between atoms: _482  and  _483
REMARK  183  A    between atoms: _485  and  _487
REMARK  184  A    between atoms: _487  and  _488
REMARK  185  A    between atoms: _487  and  _490
REMARK  186  A    between atoms: _490  and  _491
REMARK  187  A    between atoms: _501  and  _503
REMARK  188  A    between atoms: _503  and  _504
REMARK  189  A    between atoms: _503  and  _506
REMARK  190  A    between atoms: _506  and  _507
REMARK  191  A    between atoms: _510  and  _512
REMARK  192  A    between atoms: _512  and  _513
REMARK  193  A    between atoms: _512  and  _515
REMARK  194  A    between atoms: _518  and  _520
REMARK  195  A    between atoms: _520  and  _521
REMARK  196  A    between atoms: _520  and  _523
REMARK  197  A    between atoms: _523  and  _524
REMARK  198  A    between atoms: _527  and  _529
REMARK  199  A    between atoms: _529  and  _530
REMARK  200  A    between atoms: _529  and  _532
REMARK  201  A    between atoms: _535  and  _536
REMARK  202  A    between atoms: _541  and  _543
REMARK  203  A    between atoms: _543  and  _544
REMARK  204  A    between atoms: _543  and  _546
REMARK  205  A    between atoms: _546  and  _547
REMARK  206  A    between atoms: _552  and  _553
REMARK  207  A    between atoms: _556  and  _557
REMARK  208  A    between atoms: _562  and  _564
REMARK  209  A    between atoms: _564  and  _565
REMARK  210  A    between atoms: _564  and  _567
REMARK  211  A    between atoms: _567  and  _568
REMARK  212  A    between atoms: _571  and  _573
REMARK  213  A    between atoms: _573  and  _574
REMARK  214  A    between atoms: _573  and  _576
REMARK  215  A    between atoms: _576  and  _577
REMARK  216  A    between atoms: _580  and  _582
REMARK  217  A    between atoms: _582  and  _583
REMARK  218  A    between atoms: _585  and  _587
REMARK  219  A    between atoms: _587  and  _588
REMARK  220  A    between atoms: _587  and  _590
REMARK  221  A    between atoms: _590  and  _591
REMARK  222  A    between atoms: _591  and  _592
REMARK  223  A    between atoms: _592  and  _593
REMARK  224  A    between atoms: _602  and  _604
REMARK  225  A    between atoms: _604  and  _605
REMARK  226  A    between atoms: _604  and  _607
REMARK  227  A    between atoms: _607  and  _608
REMARK                            x       y       z     vdW  Elec       q    Type
REMARK                         _______ _______ _______ _____ _____    ______ ____
ROOT
ATOM      1  O   HOH     1       4.489   1.945  19.202  0.00  0.00    +0.000 OA
ENDROOT
TORSDOF 0
REMARK  Name = ../refined-set-2016/3sm2/3sm2_pocket.pdb
REMARK  227 active torsions:
REMARK  status: ('A' for Active; 'I' for Inactive)
REMARK    1  A    between atoms: _2  and  _3
REMARK    2  A    between atoms: _8  and  _10
REMARK    3  A    between atoms: _10  and  _11
REMARK    4  A    between atoms: _10  and  _13
REMARK    5  A    between atoms: _13  and  _14
REMARK    6  A    between atoms: _17  and  _19
REMARK    7  A    between atoms: _19  and  _20
REMARK    8  A    between atoms: _19  and  _22
REMARK    9  A    between atoms: _25  and  _27
REMARK   10  A    between atoms: _27  and  _28
REMARK   11  A    between atoms: _27  and  _30
REMARK   12  A    between atoms: _30  and  _31
REMARK   13  A    between atoms: _34  and  _36
REMARK   14  A    between atoms: _36  and  _37
REMARK   15  A    between atoms: _36  and  _39
REMARK   16  A    between atoms: _39  and  _40
REMARK   17  A    between atoms: _43  and  _45
REMARK   18  A    between atoms: _45  and  _46
REMARK   19  A    between atoms: _48  and  _50
REMARK   20  A    between atoms: _50  and  _51
REMARK   21  A    between atoms: _54  and  _56
REMARK   22  A    between atoms: _56  and  _57
REMARK   23  A    between atoms: _56  and  _59
REMARK   24  A    between atoms: _59  and  _60
REMARK   25  A    between atoms: _60  and  _61
REMARK   26  A    between atoms: _66  and  _68
REMARK   27  A    between atoms: _68  and  _69
REMARK   28  A    between atoms: _68  and  _71
REMARK   29  A    between atoms: _71  and  _72
REMARK   30  A    between atoms: _77  and  _79
REMARK   31  A    between atoms: _79  and  _80
REMARK   32  A    between atoms: _79  and  _82
REMARK   33  A    between atoms: _82  and  _83
REMARK   34  A    between atoms: _85  and  _87
REMARK   35  A    between atoms: _87  and  _88
REMARK   36  A    between atoms: _87  and  _90
REMARK   37  A    between atoms: _93  and  _95
REMARK   38  A    between atoms: _95  and  _96
REMARK   39  A    between atoms: _95  and  _98
REMARK   40  A    between atoms: _98  and  _99
REMARK   41  A    between atoms: _102  and  _104
REMARK   42  A    between atoms: _104  and  _105
REMARK   43  A    between atoms: _104  and  _107
REMARK   44  A    between atoms: _107  and  _108
REMARK   45  A    between atoms: _118  and  _120
REMARK   46  A    between atoms: _120  and  _121
REMARK   47  A    between atoms: _120  and  _123
REMARK   48  A    between atoms: _126  and  _128
REMARK   49  A    between atoms: _128  and  _129
REMARK   50  A    between atoms: _128  and  _131
REMARK   51  A    between atoms: _131  and  _132
REMARK   52  A    between atoms: _132  and  _133
REMARK   53  A    between atoms: _138  and  _140
REMARK   54  A    between atoms: _140  and  _141
REMARK   55  A    between atoms: _143  and  _145
REMARK   56  A    between atoms: _145  and  _146
REMARK   57  A    between atoms: _149  and  _151
REMARK   58  A    between atoms: _151  and  _152
REMARK   59  A    between atoms: _151  and  _154
REMARK   60  A    between atoms: _154  and  _155
REMARK   61  A    between atoms: _158  and  _160
REMARK   62  A    between atoms: _160  and  _161
REMARK   63  A    between atoms: _163  and  _165
REMARK   64  A    between atoms: _165  and  _166
REMARK   65  A    between atoms: _165  and  _168
REMARK   66  A    between atoms: _168  and  _169
REMARK   67  A    between atoms: _174  and  _175
REMARK   68  A    between atoms: _177  and  _179
REMARK   69  A    between atoms: _179  and  _180
REMARK   70  A    between atoms: _179  and  _182
REMARK   71  A    between atoms: _182  and  _183
REMARK   72  A    between atoms: _193  and  _195
REMARK   73  A    between atoms: _195  and  _196
REMARK   74  A    between atoms: _195  and  _198
REMARK   75  A    between atoms: _198  and  _199
REMARK   76  A    between atoms: _202  and  _204
REMARK   77  A    between atoms: _204  and  _205
REMARK   78  A    between atoms: _204  and  _207
REMARK   79  A    between atoms: _210  and  _212
REMARK   80  A    between atoms: _212  and  _213
REMARK   81  A    between atoms: _212  and  _215
REMARK   82  A    between atoms: _215  and  _216
REMARK   83  A    between atoms: _219  and  _221
REMARK   84  A    between atoms: _221  and  _222
REMARK   85  A    between atoms: _221  and  _224
REMARK   86  A    between atoms: _227  and  _228
REMARK   87  A    between atoms: _233  and  _235
REMARK   88  A    between atoms: _235  and  _236
REMARK   89  A    between atoms: _235  and  _238
REMARK   90  A    between atoms: _238  and  _239
REMARK   91  A    between atoms: _244  and  _245
REMARK   92  A    between atoms: _248  and  _249
REMARK   93  A    between atoms: _254  and  _256
REMARK   94  A    between atoms: _256  and  _257
REMARK   95  A    between atoms: _256  and  _259
REMARK   96  A    between atoms: _259  and  _260
REMARK   97  A    between atoms: _263  and  _265
REMARK   98  A    between atoms: _265  and  _266
REMARK   99  A    between atoms: _268  and  _270
REMARK  100  A    between atoms: _270  and  _271
REMARK  101  A    between atoms: _270  and  _273
REMARK  102  A    between atoms: _273  and  _274
REMARK  103  A    between atoms: _274  and  _275
REMARK  104  A    between atoms: _275  and  _276
REMARK  105  A    between atoms: _285  and  _287
REMARK  106  A    between atoms: _287  and  _288
REMARK  107  A    between atoms: _287  and  _290
REMARK  108  A    between atoms: _290  and  _291
REMARK  109  A    between atoms: _295  and  _296
REMARK  110  A    between atoms: _301  and  _303
REMARK  111  A    between atoms: _303  and  _304
REMARK  112  A    between atoms: _303  and  _306
REMARK  113  A    between atoms: _306  and  _307
REMARK  114  A    between atoms: _310  and  _312
REMARK  115  A    between atoms: _312  and  _313
REMARK  116  A    between atoms: _312  and  _315
REMARK  117  A    between atoms: _318  and  _320
REMARK  118  A    between atoms: _320  and  _321
REMARK  119  A    between atoms: _320  and  _323
REMARK  120  A    between atoms: _323  and  _324
REMARK  121  A    between atoms: _327  and  _329
REMARK  122  A    between atoms: _329  and  _330
REMARK  123  A    between atoms: _329  and  _332
REMARK  124  A    between atoms: _332  and  _333
REMARK  125  A    between atoms: _336  and  _338
REMARK  126  A    between atoms: _338  and  _339
REMARK  127  A    between atoms: _341  and  _343
REMARK  128  A    between atoms: _343  and  _344
REMARK  129  A    between atoms: _347  and  _349
REMARK  130  A    between atoms: _349  and  _350
REMARK  131  A    between atoms: _349  and  _352
REMARK  132  A    between atoms: _352  and  _353
REMARK  133  A    between atoms: _353  and  _354
REMARK  134  A    between atoms: _359  and  _361
REMARK  135  A    between atoms: _361  and  _362
REMARK  136  A    between atoms: _361  and  _364
REMARK  137  A    between atoms: _364  and  _365
REMARK  138  A    between atoms: _370  and  _372
REMARK  139  A    between atoms: _372  and  _373
REMARK  140  A    between atoms: _372  and  _375
REMARK  141  A    between atoms: _375  and  _376
REMARK  142  A    between atoms: _378  and  _380
REMARK  143  A    between atoms: _380  and  _381
REMARK  144  A    between atoms: _380  and  _383
REMARK  145  A    between atoms: _386  and  _388
REMARK  146  A    between atoms: _388  and  _389
REMARK  147  A    between atoms: _392  and  _394
REMARK  148  A    between atoms: _394  and  _395
REMARK  149  A    between atoms: _394  and  _397
REMARK  150  A    between atoms: _397  and  _398
REMARK  151  A    between atoms: _408  and  _410
REMARK  152  A    between atoms: _410  and  _411
REMARK  153  A    between atoms: _410  and  _413
REMARK  154  A    between atoms: _416  and  _418
REMARK  155  A    between atoms: _418  and  _419
REMARK  156  A    between atoms: _418  and  _421
REMARK  157  A    between atoms: _421  and  _422
REMARK  158  A    between atoms: _422  and  _423
REMARK  159  A    between atoms: _428  and  _430
REMARK  160  A    between atoms: _430  and  _431
REMARK  161  A    between atoms: _433  and  _435
REMARK  162  A    between atoms: _435  and  _436
REMARK  163  A    between atoms: _439  and  _441
REMARK  164  A    between atoms: _441  and  _442
REMARK  165  A    between atoms: _441  and  _444
REMARK  166  A    between atoms: _444  and  _445
REMARK  167  A    between atoms: _448  and  _450
REMARK  168  A    between atoms: _450  and  _451
REMARK  169  A    between atoms: _453  and  _455
REMARK  170  A    between atoms: _455  and  _456
REMARK  171  A    between atoms: _458  and  _460
REMARK  172  A    between atoms: _460  and  _461
REMARK  173  A    between atoms: _460  and  _463
REMARK  174  A    between atoms: _463  and  _464
REMARK  175  A    between atoms: _464  and  _465
REMARK  176  A    between atoms: _465  and  _466
REMARK  177  A    between atoms: _466  and  _467
REMARK  178  A    between atoms: _471  and  _473
REMARK  179  A    between atoms: _473  and  _474
REMARK  180  A    between atoms: _473  and  _476
REMARK  181  A    between atoms: _476  and  _477
REMARK  182  A    between atoms: _482  and  _483
REMARK  183  A    between atoms: _485  and  _487
REMARK  184  A    between atoms: _487  and  _488
REMARK  185  A    between atoms: _487  and  _490
REMARK  186  A    between atoms: _490  and  _491
REMARK  187  A    between atoms: _501  and  _503
REMARK  188  A    between atoms: _503  and  _504
REMARK  189  A    between atoms: _503  and  _506
REMARK  190  A    between atoms: _506  and  _507
REMARK  191  A    between atoms: _510  and  _512
REMARK  192  A    between atoms: _512  and  _513
REMARK  193  A    between atoms: _512  and  _515
REMARK  194  A    between atoms: _518  and  _520
REMARK  195  A    between atoms: _520  and  _521
REMARK  196  A    between atoms: _520  and  _523
REMARK  197  A    between atoms: _523  and  _524
REMARK  198  A    between atoms: _527  and  _529
REMARK  199  A    between atoms: _529  and  _530
REMARK  200  A    between atoms: _529  and  _532
REMARK  201  A    between atoms: _535  and  _536
REMARK  202  A    between atoms: _541  and  _543
REMARK  203  A    between atoms: _543  and  _544
REMARK  204  A    between atoms: _543  and  _546
REMARK  205  A    between atoms: _546  and  _547
REMARK  206  A    between atoms: _552  and  _553
REMARK  207  A    between atoms: _556  and  _557
REMARK  208  A    between atoms: _562  and  _564
REMARK  209  A    between atoms: _564  and  _565
REMARK  210  A    between atoms: _564  and  _567
REMARK  211  A    between atoms: _567  and  _568
REMARK  212  A    between atoms: _571  and  _573
REMARK  213  A    between atoms: _573  and  _574
REMARK  214  A    between atoms: _573  and  _576
REMARK  215  A    between atoms: _576  and  _577
REMARK  216  A    between atoms: _580  and  _582
REMARK  217  A    between atoms: _582  and  _583
REMARK  218  A    between atoms: _585  and  _587
REMARK  219  A    between atoms: _587  and  _588
REMARK  220  A    between atoms: _587  and  _590
REMARK  221  A    between atoms: _590  and  _591
REMARK  222  A    between atoms: _591  and  _592
REMARK  223  A    between atoms: _592  and  _593
REMARK  224  A    between atoms: _602  and  _604
REMARK  225  A    between atoms: _604  and  _605
REMARK  226  A    between atoms: _604  and  _607
REMARK  227  A    between atoms: _607  and  _608
REMARK                            x       y       z     vdW  Elec       q    Type
REMARK                         _______ _______ _______ _____ _____    ______ ____
ROOT
ATOM      1  O   HOH     1       0.549   2.187  17.385  0.00  0.00    +0.000 OA
ENDROOT
TORSDOF 0
REMARK  Name = ../refined-set-2016/3sm2/3sm2_pocket.pdb
REMARK  227 active torsions:
REMARK  status: ('A' for Active; 'I' for Inactive)
REMARK    1  A    between atoms: _2  and  _3
REMARK    2  A    between atoms: _8  and  _10
REMARK    3  A    between atoms: _10  and  _11
REMARK    4  A    between atoms: _10  and  _13
REMARK    5  A    between atoms: _13  and  _14
REMARK    6  A    between atoms: _17  and  _19
REMARK    7  A    between atoms: _19  and  _20
REMARK    8  A    between atoms: _19  and  _22
REMARK    9  A    between atoms: _25  and  _27
REMARK   10  A    between atoms: _27  and  _28
REMARK   11  A    between atoms: _27  and  _30
REMARK   12  A    between atoms: _30  and  _31
REMARK   13  A    between atoms: _34  and  _36
REMARK   14  A    between atoms: _36  and  _37
REMARK   15  A    between atoms: _36  and  _39
REMARK   16  A    between atoms: _39  and  _40
REMARK   17  A    between atoms: _43  and  _45
REMARK   18  A    between atoms: _45  and  _46
REMARK   19  A    between atoms: _48  and  _50
REMARK   20  A    between atoms: _50  and  _51
REMARK   21  A    between atoms: _54  and  _56
REMARK   22  A    between atoms: _56  and  _57
REMARK   23  A    between atoms: _56  and  _59
REMARK   24  A    between atoms: _59  and  _60
REMARK   25  A    between atoms: _60  and  _61
REMARK   26  A    between atoms: _66  and  _68
REMARK   27  A    between atoms: _68  and  _69
REMARK   28  A    between atoms: _68  and  _71
REMARK   29  A    between atoms: _71  and  _72
REMARK   30  A    between atoms: _77  and  _79
REMARK   31  A    between atoms: _79  and  _80
REMARK   32  A    between atoms: _79  and  _82
REMARK   33  A    between atoms: _82  and  _83
REMARK   34  A    between atoms: _85  and  _87
REMARK   35  A    between atoms: _87  and  _88
REMARK   36  A    between atoms: _87  and  _90
REMARK   37  A    between atoms: _93  and  _95
REMARK   38  A    between atoms: _95  and  _96
REMARK   39  A    between atoms: _95  and  _98
REMARK   40  A    between atoms: _98  and  _99
REMARK   41  A    between atoms: _102  and  _104
REMARK   42  A    between atoms: _104  and  _105
REMARK   43  A    between atoms: _104  and  _107
REMARK   44  A    between atoms: _107  and  _108
REMARK   45  A    between atoms: _118  and  _120
REMARK   46  A    between atoms: _120  and  _121
REMARK   47  A    between atoms: _120  and  _123
REMARK   48  A    between atoms: _126  and  _128
REMARK   49  A    between atoms: _128  and  _129
REMARK   50  A    between atoms: _128  and  _131
REMARK   51  A    between atoms: _131  and  _132
REMARK   52  A    between atoms: _132  and  _133
REMARK   53  A    between atoms: _138  and  _140
REMARK   54  A    between atoms: _140  and  _141
REMARK   55  A    between atoms: _143  and  _145
REMARK   56  A    between atoms: _145  and  _146
REMARK   57  A    between atoms: _149  and  _151
REMARK   58  A    between atoms: _151  and  _152
REMARK   59  A    between atoms: _151  and  _154
REMARK   60  A    between atoms: _154  and  _155
REMARK   61  A    between atoms: _158  and  _160
REMARK   62  A    between atoms: _160  and  _161
REMARK   63  A    between atoms: _163  and  _165
REMARK   64  A    between atoms: _165  and  _166
REMARK   65  A    between atoms: _165  and  _168
REMARK   66  A    between atoms: _168  and  _169
REMARK   67  A    between atoms: _174  and  _175
REMARK   68  A    between atoms: _177  and  _179
REMARK   69  A    between atoms: _179  and  _180
REMARK   70  A    between atoms: _179  and  _182
REMARK   71  A    between atoms: _182  and  _183
REMARK   72  A    between atoms: _193  and  _195
REMARK   73  A    between atoms: _195  and  _196
REMARK   74  A    between atoms: _195  and  _198
REMARK   75  A    between atoms: _198  and  _199
REMARK   76  A    between atoms: _202  and  _204
REMARK   77  A    between atoms: _204  and  _205
REMARK   78  A    between atoms: _204  and  _207
REMARK   79  A    between atoms: _210  and  _212
REMARK   80  A    between atoms: _212  and  _213
REMARK   81  A    between atoms: _212  and  _215
REMARK   82  A    between atoms: _215  and  _216
REMARK   83  A    between atoms: _219  and  _221
REMARK   84  A    between atoms: _221  and  _222
REMARK   85  A    between atoms: _221  and  _224
REMARK   86  A    between atoms: _227  and  _228
REMARK   87  A    between atoms: _233  and  _235
REMARK   88  A    between atoms: _235  and  _236
REMARK   89  A    between atoms: _235  and  _238
REMARK   90  A    between atoms: _238  and  _239
REMARK   91  A    between atoms: _244  and  _245
REMARK   92  A    between atoms: _248  and  _249
REMARK   93  A    between atoms: _254  and  _256
REMARK   94  A    between atoms: _256  and  _257
REMARK   95  A    between atoms: _256  and  _259
REMARK   96  A    between atoms: _259  and  _260
REMARK   97  A    between atoms: _263  and  _265
REMARK   98  A    between atoms: _265  and  _266
REMARK   99  A    between atoms: _268  and  _270
REMARK  100  A    between atoms: _270  and  _271
REMARK  101  A    between atoms: _270  and  _273
REMARK  102  A    between atoms: _273  and  _274
REMARK  103  A    between atoms: _274  and  _275
REMARK  104  A    between atoms: _275  and  _276
REMARK  105  A    between atoms: _285  and  _287
REMARK  106  A    between atoms: _287  and  _288
REMARK  107  A    between atoms: _287  and  _290
REMARK  108  A    between atoms: _290  and  _291
REMARK  109  A    between atoms: _295  and  _296
REMARK  110  A    between atoms: _301  and  _303
REMARK  111  A    between atoms: _303  and  _304
REMARK  112  A    between atoms: _303  and  _306
REMARK  113  A    between atoms: _306  and  _307
REMARK  114  A    between atoms: _310  and  _312
REMARK  115  A    between atoms: _312  and  _313
REMARK  116  A    between atoms: _312  and  _315
REMARK  117  A    between atoms: _318  and  _320
REMARK  118  A    between atoms: _320  and  _321
REMARK  119  A    between atoms: _320  and  _323
REMARK  120  A    between atoms: _323  and  _324
REMARK  121  A    between atoms: _327  and  _329
REMARK  122  A    between atoms: _329  and  _330
REMARK  123  A    between atoms: _329  and  _332
REMARK  124  A    between atoms: _332  and  _333
REMARK  125  A    between atoms: _336  and  _338
REMARK  126  A    between atoms: _338  and  _339
REMARK  127  A    between atoms: _341  and  _343
REMARK  128  A    between atoms: _343  and  _344
REMARK  129  A    between atoms: _347  and  _349
REMARK  130  A    between atoms: _349  and  _350
REMARK  131  A    between atoms: _349  and  _352
REMARK  132  A    between atoms: _352  and  _353
REMARK  133  A    between atoms: _353  and  _354
REMARK  134  A    between atoms: _359  and  _361
REMARK  135  A    between atoms: _361  and  _362
REMARK  136  A    between atoms: _361  and  _364
REMARK  137  A    between atoms: _364  and  _365
REMARK  138  A    between atoms: _370  and  _372
REMARK  139  A    between atoms: _372  and  _373
REMARK  140  A    between atoms: _372  and  _375
REMARK  141  A    between atoms: _375  and  _376
REMARK  142  A    between atoms: _378  and  _380
REMARK  143  A    between atoms: _380  and  _381
REMARK  144  A    between atoms: _380  and  _383
REMARK  145  A    between atoms: _386  and  _388
REMARK  146  A    between atoms: _388  and  _389
REMARK  147  A    between atoms: _392  and  _394
REMARK  148  A    between atoms: _394  and  _395
REMARK  149  A    between atoms: _394  and  _397
REMARK  150  A    between atoms: _397  and  _398
REMARK  151  A    between atoms: _408  and  _410
REMARK  152  A    between atoms: _410  and  _411
REMARK  153  A    between atoms: _410  and  _413
REMARK  154  A    between atoms: _416  and  _418
REMARK  155  A    between atoms: _418  and  _419
REMARK  156  A    between atoms: _418  and  _421
REMARK  157  A    between atoms: _421  and  _422
REMARK  158  A    between atoms: _422  and  _423
REMARK  159  A    between atoms: _428  and  _430
REMARK  160  A    between atoms: _430  and  _431
REMARK  161  A    between atoms: _433  and  _435
REMARK  162  A    between atoms: _435  and  _436
REMARK  163  A    between atoms: _439  and  _441
REMARK  164  A    between atoms: _441  and  _442
REMARK  165  A    between atoms: _441  and  _444
REMARK  166  A    between atoms: _444  and  _445
REMARK  167  A    between atoms: _448  and  _450
REMARK  168  A    between atoms: _450  and  _451
REMARK  169  A    between atoms: _453  and  _455
REMARK  170  A    between atoms: _455  and  _456
REMARK  171  A    between atoms: _458  and  _460
REMARK  172  A    between atoms: _460  and  _461
REMARK  173  A    between atoms: _460  and  _463
REMARK  174  A    between atoms: _463  and  _464
REMARK  175  A    between atoms: _464  and  _465
REMARK  176  A    between atoms: _465  and  _466
REMARK  177  A    between atoms: _466  and  _467
REMARK  178  A    between atoms: _471  and  _473
REMARK  179  A    between atoms: _473  and  _474
REMARK  180  A    between atoms: _473  and  _476
REMARK  181  A    between atoms: _476  and  _477
REMARK  182  A    between atoms: _482  and  _483
REMARK  183  A    between atoms: _485  and  _487
REMARK  184  A    between atoms: _487  and  _488
REMARK  185  A    between atoms: _487  and  _490
REMARK  186  A    between atoms: _490  and  _491
REMARK  187  A    between atoms: _501  and  _503
REMARK  188  A    between atoms: _503  and  _504
REMARK  189  A    between atoms: _503  and  _506
REMARK  190  A    between atoms: _506  and  _507
REMARK  191  A    between atoms: _510  and  _512
REMARK  192  A    between atoms: _512  and  _513
REMARK  193  A    between atoms: _512  and  _515
REMARK  194  A    between atoms: _518  and  _520
REMARK  195  A    between atoms: _520  and  _521
REMARK  196  A    between atoms: _520  and  _523
REMARK  197  A    between atoms: _523  and  _524
REMARK  198  A    between atoms: _527  and  _529
REMARK  199  A    between atoms: _529  and  _530
REMARK  200  A    between atoms: _529  and  _532
REMARK  201  A    between atoms: _535  and  _536
REMARK  202  A    between atoms: _541  and  _543
REMARK  203  A    between atoms: _543  and  _544
REMARK  204  A    between atoms: _543  and  _546
REMARK  205  A    between atoms: _546  and  _547
REMARK  206  A    between atoms: _552  and  _553
REMARK  207  A    between atoms: _556  and  _557
REMARK  208  A    between atoms: _562  and  _564
REMARK  209  A    between atoms: _564  and  _565
REMARK  210  A    between atoms: _564  and  _567
REMARK  211  A    between atoms: _567  and  _568
REMARK  212  A    between atoms: _571  and  _573
REMARK  213  A    between atoms: _573  and  _574
REMARK  214  A    between atoms: _573  and  _576
REMARK  215  A    between atoms: _576  and  _577
REMARK  216  A    between atoms: _580  and  _582
REMARK  217  A    between atoms: _582  and  _583
REMARK  218  A    between atoms: _585  and  _587
REMARK  219  A    between atoms: _587  and  _588
REMARK  220  A    between atoms: _587  and  _590
REMARK  221  A    between atoms: _590  and  _591
REMARK  222  A    between atoms: _591  and  _592
REMARK  223  A    between atoms: _592  and  _593
REMARK  224  A    between atoms: _602  and  _604
REMARK  225  A    between atoms: _604  and  _605
REMARK  226  A    between atoms: _604  and  _607
REMARK  227  A    between atoms: _607  and  _608
REMARK                            x       y       z     vdW  Elec       q    Type
REMARK                         _______ _______ _______ _____ _____    ______ ____
ROOT
ATOM      1  O   HOH     1       2.481   4.894  16.009  0.00  0.00    +0.000 OA
ENDROOT
TORSDOF 0
REMARK  Name = ../refined-set-2016/3sm2/3sm2_pocket.pdb
REMARK  227 active torsions:
REMARK  status: ('A' for Active; 'I' for Inactive)
REMARK    1  A    between atoms: _2  and  _3
REMARK    2  A    between atoms: _8  and  _10
REMARK    3  A    between atoms: _10  and  _11
REMARK    4  A    between atoms: _10  and  _13
REMARK    5  A    between atoms: _13  and  _14
REMARK    6  A    between atoms: _17  and  _19
REMARK    7  A    between atoms: _19  and  _20
REMARK    8  A    between atoms: _19  and  _22
REMARK    9  A    between atoms: _25  and  _27
REMARK   10  A    between atoms: _27  and  _28
REMARK   11  A    between atoms: _27  and  _30
REMARK   12  A    between atoms: _30  and  _31
REMARK   13  A    between atoms: _34  and  _36
REMARK   14  A    between atoms: _36  and  _37
REMARK   15  A    between atoms: _36  and  _39
REMARK   16  A    between atoms: _39  and  _40
REMARK   17  A    between atoms: _43  and  _45
REMARK   18  A    between atoms: _45  and  _46
REMARK   19  A    between atoms: _48  and  _50
REMARK   20  A    between atoms: _50  and  _51
REMARK   21  A    between atoms: _54  and  _56
REMARK   22  A    between atoms: _56  and  _57
REMARK   23  A    between atoms: _56  and  _59
REMARK   24  A    between atoms: _59  and  _60
REMARK   25  A    between atoms: _60  and  _61
REMARK   26  A    between atoms: _66  and  _68
REMARK   27  A    between atoms: _68  and  _69
REMARK   28  A    between atoms: _68  and  _71
REMARK   29  A    between atoms: _71  and  _72
REMARK   30  A    between atoms: _77  and  _79
REMARK   31  A    between atoms: _79  and  _80
REMARK   32  A    between atoms: _79  and  _82
REMARK   33  A    between atoms: _82  and  _83
REMARK   34  A    between atoms: _85  and  _87
REMARK   35  A    between atoms: _87  and  _88
REMARK   36  A    between atoms: _87  and  _90
REMARK   37  A    between atoms: _93  and  _95
REMARK   38  A    between atoms: _95  and  _96
REMARK   39  A    between atoms: _95  and  _98
REMARK   40  A    between atoms: _98  and  _99
REMARK   41  A    between atoms: _102  and  _104
REMARK   42  A    between atoms: _104  and  _105
REMARK   43  A    between atoms: _104  and  _107
REMARK   44  A    between atoms: _107  and  _108
REMARK   45  A    between atoms: _118  and  _120
REMARK   46  A    between atoms: _120  and  _121
REMARK   47  A    between atoms: _120  and  _123
REMARK   48  A    between atoms: _126  and  _128
REMARK   49  A    between atoms: _128  and  _129
REMARK   50  A    between atoms: _128  and  _131
REMARK   51  A    between atoms: _131  and  _132
REMARK   52  A    between atoms: _132  and  _133
REMARK   53  A    between atoms: _138  and  _140
REMARK   54  A    between atoms: _140  and  _141
REMARK   55  A    between atoms: _143  and  _145
REMARK   56  A    between atoms: _145  and  _146
REMARK   57  A    between atoms: _149  and  _151
REMARK   58  A    between atoms: _151  and  _152
REMARK   59  A    between atoms: _151  and  _154
REMARK   60  A    between atoms: _154  and  _155
REMARK   61  A    between atoms: _158  and  _160
REMARK   62  A    between atoms: _160  and  _161
REMARK   63  A    between atoms: _163  and  _165
REMARK   64  A    between atoms: _165  and  _166
REMARK   65  A    between atoms: _165  and  _168
REMARK   66  A    between atoms: _168  and  _169
REMARK   67  A    between atoms: _174  and  _175
REMARK   68  A    between atoms: _177  and  _179
REMARK   69  A    between atoms: _179  and  _180
REMARK   70  A    between atoms: _179  and  _182
REMARK   71  A    between atoms: _182  and  _183
REMARK   72  A    between atoms: _193  and  _195
REMARK   73  A    between atoms: _195  and  _196
REMARK   74  A    between atoms: _195  and  _198
REMARK   75  A    between atoms: _198  and  _199
REMARK   76  A    between atoms: _202  and  _204
REMARK   77  A    between atoms: _204  and  _205
REMARK   78  A    between atoms: _204  and  _207
REMARK   79  A    between atoms: _210  and  _212
REMARK   80  A    between atoms: _212  and  _213
REMARK   81  A    between atoms: _212  and  _215
REMARK   82  A    between atoms: _215  and  _216
REMARK   83  A    between atoms: _219  and  _221
REMARK   84  A    between atoms: _221  and  _222
REMARK   85  A    between atoms: _221  and  _224
REMARK   86  A    between atoms: _227  and  _228
REMARK   87  A    between atoms: _233  and  _235
REMARK   88  A    between atoms: _235  and  _236
REMARK   89  A    between atoms: _235  and  _238
REMARK   90  A    between atoms: _238  and  _239
REMARK   91  A    between atoms: _244  and  _245
REMARK   92  A    between atoms: _248  and  _249
REMARK   93  A    between atoms: _254  and  _256
REMARK   94  A    between atoms: _256  and  _257
REMARK   95  A    between atoms: _256  and  _259
REMARK   96  A    between atoms: _259  and  _260
REMARK   97  A    between atoms: _263  and  _265
REMARK   98  A    between atoms: _265  and  _266
REMARK   99  A    between atoms: _268  and  _270
REMARK  100  A    between atoms: _270  and  _271
REMARK  101  A    between atoms: _270  and  _273
REMARK  102  A    between atoms: _273  and  _274
REMARK  103  A    between atoms: _274  and  _275
REMARK  104  A    between atoms: _275  and  _276
REMARK  105  A    between atoms: _285  and  _287
REMARK  106  A    between atoms: _287  and  _288
REMARK  107  A    between atoms: _287  and  _290
REMARK  108  A    between atoms: _290  and  _291
REMARK  109  A    between atoms: _295  and  _296
REMARK  110  A    between atoms: _301  and  _303
REMARK  111  A    between atoms: _303  and  _304
REMARK  112  A    between atoms: _303  and  _306
REMARK  113  A    between atoms: _306  and  _307
REMARK  114  A    between atoms: _310  and  _312
REMARK  115  A    between atoms: _312  and  _313
REMARK  116  A    between atoms: _312  and  _315
REMARK  117  A    between atoms: _318  and  _320
REMARK  118  A    between atoms: _320  and  _321
REMARK  119  A    between atoms: _320  and  _323
REMARK  120  A    between atoms: _323  and  _324
REMARK  121  A    between atoms: _327  and  _329
REMARK  122  A    between atoms: _329  and  _330
REMARK  123  A    between atoms: _329  and  _332
REMARK  124  A    between atoms: _332  and  _333
REMARK  125  A    between atoms: _336  and  _338
REMARK  126  A    between atoms: _338  and  _339
REMARK  127  A    between atoms: _341  and  _343
REMARK  128  A    between atoms: _343  and  _344
REMARK  129  A    between atoms: _347  and  _349
REMARK  130  A    between atoms: _349  and  _350
REMARK  131  A    between atoms: _349  and  _352
REMARK  132  A    between atoms: _352  and  _353
REMARK  133  A    between atoms: _353  and  _354
REMARK  134  A    between atoms: _359  and  _361
REMARK  135  A    between atoms: _361  and  _362
REMARK  136  A    between atoms: _361  and  _364
REMARK  137  A    between atoms: _364  and  _365
REMARK  138  A    between atoms: _370  and  _372
REMARK  139  A    between atoms: _372  and  _373
REMARK  140  A    between atoms: _372  and  _375
REMARK  141  A    between atoms: _375  and  _376
REMARK  142  A    between atoms: _378  and  _380
REMARK  143  A    between atoms: _380  and  _381
REMARK  144  A    between atoms: _380  and  _383
REMARK  145  A    between atoms: _386  and  _388
REMARK  146  A    between atoms: _388  and  _389
REMARK  147  A    between atoms: _392  and  _394
REMARK  148  A    between atoms: _394  and  _395
REMARK  149  A    between atoms: _394  and  _397
REMARK  150  A    between atoms: _397  and  _398
REMARK  151  A    between atoms: _408  and  _410
REMARK  152  A    between atoms: _410  and  _411
REMARK  153  A    between atoms: _410  and  _413
REMARK  154  A    between atoms: _416  and  _418
REMARK  155  A    between atoms: _418  and  _419
REMARK  156  A    between atoms: _418  and  _421
REMARK  157  A    between atoms: _421  and  _422
REMARK  158  A    between atoms: _422  and  _423
REMARK  159  A    between atoms: _428  and  _430
REMARK  160  A    between atoms: _430  and  _431
REMARK  161  A    between atoms: _433  and  _435
REMARK  162  A    between atoms: _435  and  _436
REMARK  163  A    between atoms: _439  and  _441
REMARK  164  A    between atoms: _441  and  _442
REMARK  165  A    between atoms: _441  and  _444
REMARK  166  A    between atoms: _444  and  _445
REMARK  167  A    between atoms: _448  and  _450
REMARK  168  A    between atoms: _450  and  _451
REMARK  169  A    between atoms: _453  and  _455
REMARK  170  A    between atoms: _455  and  _456
REMARK  171  A    between atoms: _458  and  _460
REMARK  172  A    between atoms: _460  and  _461
REMARK  173  A    between atoms: _460  and  _463
REMARK  174  A    between atoms: _463  and  _464
REMARK  175  A    between atoms: _464  and  _465
REMARK  176  A    between atoms: _465  and  _466
REMARK  177  A    between atoms: _466  and  _467
REMARK  178  A    between atoms: _471  and  _473
REMARK  179  A    between atoms: _473  and  _474
REMARK  180  A    between atoms: _473  and  _476
REMARK  181  A    between atoms: _476  and  _477
REMARK  182  A    between atoms: _482  and  _483
REMARK  183  A    between atoms: _485  and  _487
REMARK  184  A    between atoms: _487  and  _488
REMARK  185  A    between atoms: _487  and  _490
REMARK  186  A    between atoms: _490  and  _491
REMARK  187  A    between atoms: _501  and  _503
REMARK  188  A    between atoms: _503  and  _504
REMARK  189  A    between atoms: _503  and  _506
REMARK  190  A    between atoms: _506  and  _507
REMARK  191  A    between atoms: _510  and  _512
REMARK  192  A    between atoms: _512  and  _513
REMARK  193  A    between atoms: _512  and  _515
REMARK  194  A    between atoms: _518  and  _520
REMARK  195  A    between atoms: _520  and  _521
REMARK  196  A    between atoms: _520  and  _523
REMARK  197  A    between atoms: _523  and  _524
REMARK  198  A    between atoms: _527  and  _529
REMARK  199  A    between atoms: _529  and  _530
REMARK  200  A    between atoms: _529  and  _532
REMARK  201  A    between atoms: _535  and  _536
REMARK  202  A    between atoms: _541  and  _543
REMARK  203  A    between atoms: _543  and  _544
REMARK  204  A    between atoms: _543  and  _546
REMARK  205  A    between atoms: _546  and  _547
REMARK  206  A    between atoms: _552  and  _553
REMARK  207  A    between atoms: _556  and  _557
REMARK  208  A    between atoms: _562  and  _564
REMARK  209  A    between atoms: _564  and  _565
REMARK  210  A    between atoms: _564  and  _567
REMARK  211  A    between atoms: _567  and  _568
REMARK  212  A    between atoms: _571  and  _573
REMARK  213  A    between atoms: _573  and  _574
REMARK  214  A    between atoms: _573  and  _576
REMARK  215  A    between atoms: _576  and  _577
REMARK  216  A    between atoms: _580  and  _582
REMARK  217  A    between atoms: _582  and  _583
REMARK  218  A    between atoms: _585  and  _587
REMARK  219  A    between atoms: _587  and  _588
REMARK  220  A    between atoms: _587  and  _590
REMARK  221  A    between atoms: _590  and  _591
REMARK  222  A    between atoms: _591  and  _592
REMARK  223  A    between atoms: _592  and  _593
REMARK  224  A    between atoms: _602  and  _604
REMARK  225  A    between atoms: _604  and  _605
REMARK  226  A    between atoms: _604  and  _607
REMARK  227  A    between atoms: _607  and  _608
REMARK                            x       y       z     vdW  Elec       q    Type
REMARK                         _______ _______ _______ _____ _____    ______ ____
ROOT
ATOM      1  O   HOH     1      -6.650   8.949  13.203  0.00  0.00    +0.000 OA
ENDROOT
TORSDOF 0
REMARK  Name = ../refined-set-2016/3sm2/3sm2_pocket.pdb
REMARK  227 active torsions:
REMARK  status: ('A' for Active; 'I' for Inactive)
REMARK    1  A    between atoms: _2  and  _3
REMARK    2  A    between atoms: _8  and  _10
REMARK    3  A    between atoms: _10  and  _11
REMARK    4  A    between atoms: _10  and  _13
REMARK    5  A    between atoms: _13  and  _14
REMARK    6  A    between atoms: _17  and  _19
REMARK    7  A    between atoms: _19  and  _20
REMARK    8  A    between atoms: _19  and  _22
REMARK    9  A    between atoms: _25  and  _27
REMARK   10  A    between atoms: _27  and  _28
REMARK   11  A    between atoms: _27  and  _30
REMARK   12  A    between atoms: _30  and  _31
REMARK   13  A    between atoms: _34  and  _36
REMARK   14  A    between atoms: _36  and  _37
REMARK   15  A    between atoms: _36  and  _39
REMARK   16  A    between atoms: _39  and  _40
REMARK   17  A    between atoms: _43  and  _45
REMARK   18  A    between atoms: _45  and  _46
REMARK   19  A    between atoms: _48  and  _50
REMARK   20  A    between atoms: _50  and  _51
REMARK   21  A    between atoms: _54  and  _56
REMARK   22  A    between atoms: _56  and  _57
REMARK   23  A    between atoms: _56  and  _59
REMARK   24  A    between atoms: _59  and  _60
REMARK   25  A    between atoms: _60  and  _61
REMARK   26  A    between atoms: _66  and  _68
REMARK   27  A    between atoms: _68  and  _69
REMARK   28  A    between atoms: _68  and  _71
REMARK   29  A    between atoms: _71  and  _72
REMARK   30  A    between atoms: _77  and  _79
REMARK   31  A    between atoms: _79  and  _80
REMARK   32  A    between atoms: _79  and  _82
REMARK   33  A    between atoms: _82  and  _83
REMARK   34  A    between atoms: _85  and  _87
REMARK   35  A    between atoms: _87  and  _88
REMARK   36  A    between atoms: _87  and  _90
REMARK   37  A    between atoms: _93  and  _95
REMARK   38  A    between atoms: _95  and  _96
REMARK   39  A    between atoms: _95  and  _98
REMARK   40  A    between atoms: _98  and  _99
REMARK   41  A    between atoms: _102  and  _104
REMARK   42  A    between atoms: _104  and  _105
REMARK   43  A    between atoms: _104  and  _107
REMARK   44  A    between atoms: _107  and  _108
REMARK   45  A    between atoms: _118  and  _120
REMARK   46  A    between atoms: _120  and  _121
REMARK   47  A    between atoms: _120  and  _123
REMARK   48  A    between atoms: _126  and  _128
REMARK   49  A    between atoms: _128  and  _129
REMARK   50  A    between atoms: _128  and  _131
REMARK   51  A    between atoms: _131  and  _132
REMARK   52  A    between atoms: _132  and  _133
REMARK   53  A    between atoms: _138  and  _140
REMARK   54  A    between atoms: _140  and  _141
REMARK   55  A    between atoms: _143  and  _145
REMARK   56  A    between atoms: _145  and  _146
REMARK   57  A    between atoms: _149  and  _151
REMARK   58  A    between atoms: _151  and  _152
REMARK   59  A    between atoms: _151  and  _154
REMARK   60  A    between atoms: _154  and  _155
REMARK   61  A    between atoms: _158  and  _160
REMARK   62  A    between atoms: _160  and  _161
REMARK   63  A    between atoms: _163  and  _165
REMARK   64  A    between atoms: _165  and  _166
REMARK   65  A    between atoms: _165  and  _168
REMARK   66  A    between atoms: _168  and  _169
REMARK   67  A    between atoms: _174  and  _175
REMARK   68  A    between atoms: _177  and  _179
REMARK   69  A    between atoms: _179  and  _180
REMARK   70  A    between atoms: _179  and  _182
REMARK   71  A    between atoms: _182  and  _183
REMARK   72  A    between atoms: _193  and  _195
REMARK   73  A    between atoms: _195  and  _196
REMARK   74  A    between atoms: _195  and  _198
REMARK   75  A    between atoms: _198  and  _199
REMARK   76  A    between atoms: _202  and  _204
REMARK   77  A    between atoms: _204  and  _205
REMARK   78  A    between atoms: _204  and  _207
REMARK   79  A    between atoms: _210  and  _212
REMARK   80  A    between atoms: _212  and  _213
REMARK   81  A    between atoms: _212  and  _215
REMARK   82  A    between atoms: _215  and  _216
REMARK   83  A    between atoms: _219  and  _221
REMARK   84  A    between atoms: _221  and  _222
REMARK   85  A    between atoms: _221  and  _224
REMARK   86  A    between atoms: _227  and  _228
REMARK   87  A    between atoms: _233  and  _235
REMARK   88  A    between atoms: _235  and  _236
REMARK   89  A    between atoms: _235  and  _238
REMARK   90  A    between atoms: _238  and  _239
REMARK   91  A    between atoms: _244  and  _245
REMARK   92  A    between atoms: _248  and  _249
REMARK   93  A    between atoms: _254  and  _256
REMARK   94  A    between atoms: _256  and  _257
REMARK   95  A    between atoms: _256  and  _259
REMARK   96  A    between atoms: _259  and  _260
REMARK   97  A    between atoms: _263  and  _265
REMARK   98  A    between atoms: _265  and  _266
REMARK   99  A    between atoms: _268  and  _270
REMARK  100  A    between atoms: _270  and  _271
REMARK  101  A    between atoms: _270  and  _273
REMARK  102  A    between atoms: _273  and  _274
REMARK  103  A    between atoms: _274  and  _275
REMARK  104  A    between atoms: _275  and  _276
REMARK  105  A    between atoms: _285  and  _287
REMARK  106  A    between atoms: _287  and  _288
REMARK  107  A    between atoms: _287  and  _290
REMARK  108  A    between atoms: _290  and  _291
REMARK  109  A    between atoms: _295  and  _296
REMARK  110  A    between atoms: _301  and  _303
REMARK  111  A    between atoms: _303  and  _304
REMARK  112  A    between atoms: _303  and  _306
REMARK  113  A    between atoms: _306  and  _307
REMARK  114  A    between atoms: _310  and  _312
REMARK  115  A    between atoms: _312  and  _313
REMARK  116  A    between atoms: _312  and  _315
REMARK  117  A    between atoms: _318  and  _320
REMARK  118  A    between atoms: _320  and  _321
REMARK  119  A    between atoms: _320  and  _323
REMARK  120  A    between atoms: _323  and  _324
REMARK  121  A    between atoms: _327  and  _329
REMARK  122  A    between atoms: _329  and  _330
REMARK  123  A    between atoms: _329  and  _332
REMARK  124  A    between atoms: _332  and  _333
REMARK  125  A    between atoms: _336  and  _338
REMARK  126  A    between atoms: _338  and  _339
REMARK  127  A    between atoms: _341  and  _343
REMARK  128  A    between atoms: _343  and  _344
REMARK  129  A    between atoms: _347  and  _349
REMARK  130  A    between atoms: _349  and  _350
REMARK  131  A    between atoms: _349  and  _352
REMARK  132  A    between atoms: _352  and  _353
REMARK  133  A    between atoms: _353  and  _354
REMARK  134  A    between atoms: _359  and  _361
REMARK  135  A    between atoms: _361  and  _362
REMARK  136  A    between atoms: _361  and  _364
REMARK  137  A    between atoms: _364  and  _365
REMARK  138  A    between atoms: _370  and  _372
REMARK  139  A    between atoms: _372  and  _373
REMARK  140  A    between atoms: _372  and  _375
REMARK  141  A    between atoms: _375  and  _376
REMARK  142  A    between atoms: _378  and  _380
REMARK  143  A    between atoms: _380  and  _381
REMARK  144  A    between atoms: _380  and  _383
REMARK  145  A    between atoms: _386  and  _388
REMARK  146  A    between atoms: _388  and  _389
REMARK  147  A    between atoms: _392  and  _394
REMARK  148  A    between atoms: _394  and  _395
REMARK  149  A    between atoms: _394  and  _397
REMARK  150  A    between atoms: _397  and  _398
REMARK  151  A    between atoms: _408  and  _410
REMARK  152  A    between atoms: _410  and  _411
REMARK  153  A    between atoms: _410  and  _413
REMARK  154  A    between atoms: _416  and  _418
REMARK  155  A    between atoms: _418  and  _419
REMARK  156  A    between atoms: _418  and  _421
REMARK  157  A    between atoms: _421  and  _422
REMARK  158  A    between atoms: _422  and  _423
REMARK  159  A    between atoms: _428  and  _430
REMARK  160  A    between atoms: _430  and  _431
REMARK  161  A    between atoms: _433  and  _435
REMARK  162  A    between atoms: _435  and  _436
REMARK  163  A    between atoms: _439  and  _441
REMARK  164  A    between atoms: _441  and  _442
REMARK  165  A    between atoms: _441  and  _444
REMARK  166  A    between atoms: _444  and  _445
REMARK  167  A    between atoms: _448  and  _450
REMARK  168  A    between atoms: _450  and  _451
REMARK  169  A    between atoms: _453  and  _455
REMARK  170  A    between atoms: _455  and  _456
REMARK  171  A    between atoms: _458  and  _460
REMARK  172  A    between atoms: _460  and  _461
REMARK  173  A    between atoms: _460  and  _463
REMARK  174  A    between atoms: _463  and  _464
REMARK  175  A    between atoms: _464  and  _465
REMARK  176  A    between atoms: _465  and  _466
REMARK  177  A    between atoms: _466  and  _467
REMARK  178  A    between atoms: _471  and  _473
REMARK  179  A    between atoms: _473  and  _474
REMARK  180  A    between atoms: _473  and  _476
REMARK  181  A    between atoms: _476  and  _477
REMARK  182  A    between atoms: _482  and  _483
REMARK  183  A    between atoms: _485  and  _487
REMARK  184  A    between atoms: _487  and  _488
REMARK  185  A    between atoms: _487  and  _490
REMARK  186  A    between atoms: _490  and  _491
REMARK  187  A    between atoms: _501  and  _503
REMARK  188  A    between atoms: _503  and  _504
REMARK  189  A    between atoms: _503  and  _506
REMARK  190  A    between atoms: _506  and  _507
REMARK  191  A    between atoms: _510  and  _512
REMARK  192  A    between atoms: _512  and  _513
REMARK  193  A    between atoms: _512  and  _515
REMARK  194  A    between atoms: _518  and  _520
REMARK  195  A    between atoms: _520  and  _521
REMARK  196  A    between atoms: _520  and  _523
REMARK  197  A    between atoms: _523  and  _524
REMARK  198  A    between atoms: _527  and  _529
REMARK  199  A    between atoms: _529  and  _530
REMARK  200  A    between atoms: _529  and  _532
REMARK  201  A    between atoms: _535  and  _536
REMARK  202  A    between atoms: _541  and  _543
REMARK  203  A    between atoms: _543  and  _544
REMARK  204  A    between atoms: _543  and  _546
REMARK  205  A    between atoms: _546  and  _547
REMARK  206  A    between atoms: _552  and  _553
REMARK  207  A    between atoms: _556  and  _557
REMARK  208  A    between atoms: _562  and  _564
REMARK  209  A    between atoms: _564  and  _565
REMARK  210  A    between atoms: _564  and  _567
REMARK  211  A    between atoms: _567  and  _568
REMARK  212  A    between atoms: _571  and  _573
REMARK  213  A    between atoms: _573  and  _574
REMARK  214  A    between atoms: _573  and  _576
REMARK  215  A    between atoms: _576  and  _577
REMARK  216  A    between atoms: _580  and  _582
REMARK  217  A    between atoms: _582  and  _583
REMARK  218  A    between atoms: _585  and  _587
REMARK  219  A    between atoms: _587  and  _588
REMARK  220  A    between atoms: _587  and  _590
REMARK  221  A    between atoms: _590  and  _591
REMARK  222  A    between atoms: _591  and  _592
REMARK  223  A    between atoms: _592  and  _593
REMARK  224  A    between atoms: _602  and  _604
REMARK  225  A    between atoms: _604  and  _605
REMARK  226  A    between atoms: _604  and  _607
REMARK  227  A    between atoms: _607  and  _608
REMARK                            x       y       z     vdW  Elec       q    Type
REMARK                         _______ _______ _______ _____ _____    ______ ____
ROOT
ATOM      1  O   HOH     1      -0.991  11.329  14.767  0.00  0.00    +0.000 OA
ENDROOT
TORSDOF 0
REMARK  Name = ../refined-set-2016/3sm2/3sm2_pocket.pdb
REMARK  227 active torsions:
REMARK  status: ('A' for Active; 'I' for Inactive)
REMARK    1  A    between atoms: _2  and  _3
REMARK    2  A    between atoms: _8  and  _10
REMARK    3  A    between atoms: _10  and  _11
REMARK    4  A    between atoms: _10  and  _13
REMARK    5  A    between atoms: _13  and  _14
REMARK    6  A    between atoms: _17  and  _19
REMARK    7  A    between atoms: _19  and  _20
REMARK    8  A    between atoms: _19  and  _22
REMARK    9  A    between atoms: _25  and  _27
REMARK   10  A    between atoms: _27  and  _28
REMARK   11  A    between atoms: _27  and  _30
REMARK   12  A    between atoms: _30  and  _31
REMARK   13  A    between atoms: _34  and  _36
REMARK   14  A    between atoms: _36  and  _37
REMARK   15  A    between atoms: _36  and  _39
REMARK   16  A    between atoms: _39  and  _40
REMARK   17  A    between atoms: _43  and  _45
REMARK   18  A    between atoms: _45  and  _46
REMARK   19  A    between atoms: _48  and  _50
REMARK   20  A    between atoms: _50  and  _51
REMARK   21  A    between atoms: _54  and  _56
REMARK   22  A    between atoms: _56  and  _57
REMARK   23  A    between atoms: _56  and  _59
REMARK   24  A    between atoms: _59  and  _60
REMARK   25  A    between atoms: _60  and  _61
REMARK   26  A    between atoms: _66  and  _68
REMARK   27  A    between atoms: _68  and  _69
REMARK   28  A    between atoms: _68  and  _71
REMARK   29  A    between atoms: _71  and  _72
REMARK   30  A    between atoms: _77  and  _79
REMARK   31  A    between atoms: _79  and  _80
REMARK   32  A    between atoms: _79  and  _82
REMARK   33  A    between atoms: _82  and  _83
REMARK   34  A    between atoms: _85  and  _87
REMARK   35  A    between atoms: _87  and  _88
REMARK   36  A    between atoms: _87  and  _90
REMARK   37  A    between atoms: _93  and  _95
REMARK   38  A    between atoms: _95  and  _96
REMARK   39  A    between atoms: _95  and  _98
REMARK   40  A    between atoms: _98  and  _99
REMARK   41  A    between atoms: _102  and  _104
REMARK   42  A    between atoms: _104  and  _105
REMARK   43  A    between atoms: _104  and  _107
REMARK   44  A    between atoms: _107  and  _108
REMARK   45  A    between atoms: _118  and  _120
REMARK   46  A    between atoms: _120  and  _121
REMARK   47  A    between atoms: _120  and  _123
REMARK   48  A    between atoms: _126  and  _128
REMARK   49  A    between atoms: _128  and  _129
REMARK   50  A    between atoms: _128  and  _131
REMARK   51  A    between atoms: _131  and  _132
REMARK   52  A    between atoms: _132  and  _133
REMARK   53  A    between atoms: _138  and  _140
REMARK   54  A    between atoms: _140  and  _141
REMARK   55  A    between atoms: _143  and  _145
REMARK   56  A    between atoms: _145  and  _146
REMARK   57  A    between atoms: _149  and  _151
REMARK   58  A    between atoms: _151  and  _152
REMARK   59  A    between atoms: _151  and  _154
REMARK   60  A    between atoms: _154  and  _155
REMARK   61  A    between atoms: _158  and  _160
REMARK   62  A    between atoms: _160  and  _161
REMARK   63  A    between atoms: _163  and  _165
REMARK   64  A    between atoms: _165  and  _166
REMARK   65  A    between atoms: _165  and  _168
REMARK   66  A    between atoms: _168  and  _169
REMARK   67  A    between atoms: _174  and  _175
REMARK   68  A    between atoms: _177  and  _179
REMARK   69  A    between atoms: _179  and  _180
REMARK   70  A    between atoms: _179  and  _182
REMARK   71  A    between atoms: _182  and  _183
REMARK   72  A    between atoms: _193  and  _195
REMARK   73  A    between atoms: _195  and  _196
REMARK   74  A    between atoms: _195  and  _198
REMARK   75  A    between atoms: _198  and  _199
REMARK   76  A    between atoms: _202  and  _204
REMARK   77  A    between atoms: _204  and  _205
REMARK   78  A    between atoms: _204  and  _207
REMARK   79  A    between atoms: _210  and  _212
REMARK   80  A    between atoms: _212  and  _213
REMARK   81  A    between atoms: _212  and  _215
REMARK   82  A    between atoms: _215  and  _216
REMARK   83  A    between atoms: _219  and  _221
REMARK   84  A    between atoms: _221  and  _222
REMARK   85  A    between atoms: _221  and  _224
REMARK   86  A    between atoms: _227  and  _228
REMARK   87  A    between atoms: _233  and  _235
REMARK   88  A    between atoms: _235  and  _236
REMARK   89  A    between atoms: _235  and  _238
REMARK   90  A    between atoms: _238  and  _239
REMARK   91  A    between atoms: _244  and  _245
REMARK   92  A    between atoms: _248  and  _249
REMARK   93  A    between atoms: _254  and  _256
REMARK   94  A    between atoms: _256  and  _257
REMARK   95  A    between atoms: _256  and  _259
REMARK   96  A    between atoms: _259  and  _260
REMARK   97  A    between atoms: _263  and  _265
REMARK   98  A    between atoms: _265  and  _266
REMARK   99  A    between atoms: _268  and  _270
REMARK  100  A    between atoms: _270  and  _271
REMARK  101  A    between atoms: _270  and  _273
REMARK  102  A    between atoms: _273  and  _274
REMARK  103  A    between atoms: _274  and  _275
REMARK  104  A    between atoms: _275  and  _276
REMARK  105  A    between atoms: _285  and  _287
REMARK  106  A    between atoms: _287  and  _288
REMARK  107  A    between atoms: _287  and  _290
REMARK  108  A    between atoms: _290  and  _291
REMARK  109  A    between atoms: _295  and  _296
REMARK  110  A    between atoms: _301  and  _303
REMARK  111  A    between atoms: _303  and  _304
REMARK  112  A    between atoms: _303  and  _306
REMARK  113  A    between atoms: _306  and  _307
REMARK  114  A    between atoms: _310  and  _312
REMARK  115  A    between atoms: _312  and  _313
REMARK  116  A    between atoms: _312  and  _315
REMARK  117  A    between atoms: _318  and  _320
REMARK  118  A    between atoms: _320  and  _321
REMARK  119  A    between atoms: _320  and  _323
REMARK  120  A    between atoms: _323  and  _324
REMARK  121  A    between atoms: _327  and  _329
REMARK  122  A    between atoms: _329  and  _330
REMARK  123  A    between atoms: _329  and  _332
REMARK  124  A    between atoms: _332  and  _333
REMARK  125  A    between atoms: _336  and  _338
REMARK  126  A    between atoms: _338  and  _339
REMARK  127  A    between atoms: _341  and  _343
REMARK  128  A    between atoms: _343  and  _344
REMARK  129  A    between atoms: _347  and  _349
REMARK  130  A    between atoms: _349  and  _350
REMARK  131  A    between atoms: _349  and  _352
REMARK  132  A    between atoms: _352  and  _353
REMARK  133  A    between atoms: _353  and  _354
REMARK  134  A    between atoms: _359  and  _361
REMARK  135  A    between atoms: _361  and  _362
REMARK  136  A    between atoms: _361  and  _364
REMARK  137  A    between atoms: _364  and  _365
REMARK  138  A    between atoms: _370  and  _372
REMARK  139  A    between atoms: _372  and  _373
REMARK  140  A    between atoms: _372  and  _375
REMARK  141  A    between atoms: _375  and  _376
REMARK  142  A    between atoms: _378  and  _380
REMARK  143  A    between atoms: _380  and  _381
REMARK  144  A    between atoms: _380  and  _383
REMARK  145  A    between atoms: _386  and  _388
REMARK  146  A    between atoms: _388  and  _389
REMARK  147  A    between atoms: _392  and  _394
REMARK  148  A    between atoms: _394  and  _395
REMARK  149  A    between atoms: _394  and  _397
REMARK  150  A    between atoms: _397  and  _398
REMARK  151  A    between atoms: _408  and  _410
REMARK  152  A    between atoms: _410  and  _411
REMARK  153  A    between atoms: _410  and  _413
REMARK  154  A    between atoms: _416  and  _418
REMARK  155  A    between atoms: _418  and  _419
REMARK  156  A    between atoms: _418  and  _421
REMARK  157  A    between atoms: _421  and  _422
REMARK  158  A    between atoms: _422  and  _423
REMARK  159  A    between atoms: _428  and  _430
REMARK  160  A    between atoms: _430  and  _431
REMARK  161  A    between atoms: _433  and  _435
REMARK  162  A    between atoms: _435  and  _436
REMARK  163  A    between atoms: _439  and  _441
REMARK  164  A    between atoms: _441  and  _442
REMARK  165  A    between atoms: _441  and  _444
REMARK  166  A    between atoms: _444  and  _445
REMARK  167  A    between atoms: _448  and  _450
REMARK  168  A    between atoms: _450  and  _451
REMARK  169  A    between atoms: _453  and  _455
REMARK  170  A    between atoms: _455  and  _456
REMARK  171  A    between atoms: _458  and  _460
REMARK  172  A    between atoms: _460  and  _461
REMARK  173  A    between atoms: _460  and  _463
REMARK  174  A    between atoms: _463  and  _464
REMARK  175  A    between atoms: _464  and  _465
REMARK  176  A    between atoms: _465  and  _466
REMARK  177  A    between atoms: _466  and  _467
REMARK  178  A    between atoms: _471  and  _473
REMARK  179  A    between atoms: _473  and  _474
REMARK  180  A    between atoms: _473  and  _476
REMARK  181  A    between atoms: _476  and  _477
REMARK  182  A    between atoms: _482  and  _483
REMARK  183  A    between atoms: _485  and  _487
REMARK  184  A    between atoms: _487  and  _488
REMARK  185  A    between atoms: _487  and  _490
REMARK  186  A    between atoms: _490  and  _491
REMARK  187  A    between atoms: _501  and  _503
REMARK  188  A    between atoms: _503  and  _504
REMARK  189  A    between atoms: _503  and  _506
REMARK  190  A    between atoms: _506  and  _507
REMARK  191  A    between atoms: _510  and  _512
REMARK  192  A    between atoms: _512  and  _513
REMARK  193  A    between atoms: _512  and  _515
REMARK  194  A    between atoms: _518  and  _520
REMARK  195  A    between atoms: _520  and  _521
REMARK  196  A    between atoms: _520  and  _523
REMARK  197  A    between atoms: _523  and  _524
REMARK  198  A    between atoms: _527  and  _529
REMARK  199  A    between atoms: _529  and  _530
REMARK  200  A    between atoms: _529  and  _532
REMARK  201  A    between atoms: _535  and  _536
REMARK  202  A    between atoms: _541  and  _543
REMARK  203  A    between atoms: _543  and  _544
REMARK  204  A    between atoms: _543  and  _546
REMARK  205  A    between atoms: _546  and  _547
REMARK  206  A    between atoms: _552  and  _553
REMARK  207  A    between atoms: _556  and  _557
REMARK  208  A    between atoms: _562  and  _564
REMARK  209  A    between atoms: _564  and  _565
REMARK  210  A    between atoms: _564  and  _567
REMARK  211  A    between atoms: _567  and  _568
REMARK  212  A    between atoms: _571  and  _573
REMARK  213  A    between atoms: _573  and  _574
REMARK  214  A    between atoms: _573  and  _576
REMARK  215  A    between atoms: _576  and  _577
REMARK  216  A    between atoms: _580  and  _582
REMARK  217  A    between atoms: _582  and  _583
REMARK  218  A    between atoms: _585  and  _587
REMARK  219  A    between atoms: _587  and  _588
REMARK  220  A    between atoms: _587  and  _590
REMARK  221  A    between atoms: _590  and  _591
REMARK  222  A    between atoms: _591  and  _592
REMARK  223  A    between atoms: _592  and  _593
REMARK  224  A    between atoms: _602  and  _604
REMARK  225  A    between atoms: _604  and  _605
REMARK  226  A    between atoms: _604  and  _607
REMARK  227  A    between atoms: _607  and  _608
REMARK                            x       y       z     vdW  Elec       q    Type
REMARK                         _______ _______ _______ _____ _____    ______ ____
ROOT
ATOM      1  O   HOH     1     -12.265   7.480  11.978  0.00  0.00    +0.000 OA
ENDROOT
TORSDOF 0
REMARK  Name = ../refined-set-2016/3sm2/3sm2_pocket.pdb
REMARK  227 active torsions:
REMARK  status: ('A' for Active; 'I' for Inactive)
REMARK    1  A    between atoms: _2  and  _3
REMARK    2  A    between atoms: _8  and  _10
REMARK    3  A    between atoms: _10  and  _11
REMARK    4  A    between atoms: _10  and  _13
REMARK    5  A    between atoms: _13  and  _14
REMARK    6  A    between atoms: _17  and  _19
REMARK    7  A    between atoms: _19  and  _20
REMARK    8  A    between atoms: _19  and  _22
REMARK    9  A    between atoms: _25  and  _27
REMARK   10  A    between atoms: _27  and  _28
REMARK   11  A    between atoms: _27  and  _30
REMARK   12  A    between atoms: _30  and  _31
REMARK   13  A    between atoms: _34  and  _36
REMARK   14  A    between atoms: _36  and  _37
REMARK   15  A    between atoms: _36  and  _39
REMARK   16  A    between atoms: _39  and  _40
REMARK   17  A    between atoms: _43  and  _45
REMARK   18  A    between atoms: _45  and  _46
REMARK   19  A    between atoms: _48  and  _50
REMARK   20  A    between atoms: _50  and  _51
REMARK   21  A    between atoms: _54  and  _56
REMARK   22  A    between atoms: _56  and  _57
REMARK   23  A    between atoms: _56  and  _59
REMARK   24  A    between atoms: _59  and  _60
REMARK   25  A    between atoms: _60  and  _61
REMARK   26  A    between atoms: _66  and  _68
REMARK   27  A    between atoms: _68  and  _69
REMARK   28  A    between atoms: _68  and  _71
REMARK   29  A    between atoms: _71  and  _72
REMARK   30  A    between atoms: _77  and  _79
REMARK   31  A    between atoms: _79  and  _80
REMARK   32  A    between atoms: _79  and  _82
REMARK   33  A    between atoms: _82  and  _83
REMARK   34  A    between atoms: _85  and  _87
REMARK   35  A    between atoms: _87  and  _88
REMARK   36  A    between atoms: _87  and  _90
REMARK   37  A    between atoms: _93  and  _95
REMARK   38  A    between atoms: _95  and  _96
REMARK   39  A    between atoms: _95  and  _98
REMARK   40  A    between atoms: _98  and  _99
REMARK   41  A    between atoms: _102  and  _104
REMARK   42  A    between atoms: _104  and  _105
REMARK   43  A    between atoms: _104  and  _107
REMARK   44  A    between atoms: _107  and  _108
REMARK   45  A    between atoms: _118  and  _120
REMARK   46  A    between atoms: _120  and  _121
REMARK   47  A    between atoms: _120  and  _123
REMARK   48  A    between atoms: _126  and  _128
REMARK   49  A    between atoms: _128  and  _129
REMARK   50  A    between atoms: _128  and  _131
REMARK   51  A    between atoms: _131  and  _132
REMARK   52  A    between atoms: _132  and  _133
REMARK   53  A    between atoms: _138  and  _140
REMARK   54  A    between atoms: _140  and  _141
REMARK   55  A    between atoms: _143  and  _145
REMARK   56  A    between atoms: _145  and  _146
REMARK   57  A    between atoms: _149  and  _151
REMARK   58  A    between atoms: _151  and  _152
REMARK   59  A    between atoms: _151  and  _154
REMARK   60  A    between atoms: _154  and  _155
REMARK   61  A    between atoms: _158  and  _160
REMARK   62  A    between atoms: _160  and  _161
REMARK   63  A    between atoms: _163  and  _165
REMARK   64  A    between atoms: _165  and  _166
REMARK   65  A    between atoms: _165  and  _168
REMARK   66  A    between atoms: _168  and  _169
REMARK   67  A    between atoms: _174  and  _175
REMARK   68  A    between atoms: _177  and  _179
REMARK   69  A    between atoms: _179  and  _180
REMARK   70  A    between atoms: _179  and  _182
REMARK   71  A    between atoms: _182  and  _183
REMARK   72  A    between atoms: _193  and  _195
REMARK   73  A    between atoms: _195  and  _196
REMARK   74  A    between atoms: _195  and  _198
REMARK   75  A    between atoms: _198  and  _199
REMARK   76  A    between atoms: _202  and  _204
REMARK   77  A    between atoms: _204  and  _205
REMARK   78  A    between atoms: _204  and  _207
REMARK   79  A    between atoms: _210  and  _212
REMARK   80  A    between atoms: _212  and  _213
REMARK   81  A    between atoms: _212  and  _215
REMARK   82  A    between atoms: _215  and  _216
REMARK   83  A    between atoms: _219  and  _221
REMARK   84  A    between atoms: _221  and  _222
REMARK   85  A    between atoms: _221  and  _224
REMARK   86  A    between atoms: _227  and  _228
REMARK   87  A    between atoms: _233  and  _235
REMARK   88  A    between atoms: _235  and  _236
REMARK   89  A    between atoms: _235  and  _238
REMARK   90  A    between atoms: _238  and  _239
REMARK   91  A    between atoms: _244  and  _245
REMARK   92  A    between atoms: _248  and  _249
REMARK   93  A    between atoms: _254  and  _256
REMARK   94  A    between atoms: _256  and  _257
REMARK   95  A    between atoms: _256  and  _259
REMARK   96  A    between atoms: _259  and  _260
REMARK   97  A    between atoms: _263  and  _265
REMARK   98  A    between atoms: _265  and  _266
REMARK   99  A    between atoms: _268  and  _270
REMARK  100  A    between atoms: _270  and  _271
REMARK  101  A    between atoms: _270  and  _273
REMARK  102  A    between atoms: _273  and  _274
REMARK  103  A    between atoms: _274  and  _275
REMARK  104  A    between atoms: _275  and  _276
REMARK  105  A    between atoms: _285  and  _287
REMARK  106  A    between atoms: _287  and  _288
REMARK  107  A    between atoms: _287  and  _290
REMARK  108  A    between atoms: _290  and  _291
REMARK  109  A    between atoms: _295  and  _296
REMARK  110  A    between atoms: _301  and  _303
REMARK  111  A    between atoms: _303  and  _304
REMARK  112  A    between atoms: _303  and  _306
REMARK  113  A    between atoms: _306  and  _307
REMARK  114  A    between atoms: _310  and  _312
REMARK  115  A    between atoms: _312  and  _313
REMARK  116  A    between atoms: _312  and  _315
REMARK  117  A    between atoms: _318  and  _320
REMARK  118  A    between atoms: _320  and  _321
REMARK  119  A    between atoms: _320  and  _323
REMARK  120  A    between atoms: _323  and  _324
REMARK  121  A    between atoms: _327  and  _329
REMARK  122  A    between atoms: _329  and  _330
REMARK  123  A    between atoms: _329  and  _332
REMARK  124  A    between atoms: _332  and  _333
REMARK  125  A    between atoms: _336  and  _338
REMARK  126  A    between atoms: _338  and  _339
REMARK  127  A    between atoms: _341  and  _343
REMARK  128  A    between atoms: _343  and  _344
REMARK  129  A    between atoms: _347  and  _349
REMARK  130  A    between atoms: _349  and  _350
REMARK  131  A    between atoms: _349  and  _352
REMARK  132  A    between atoms: _352  and  _353
REMARK  133  A    between atoms: _353  and  _354
REMARK  134  A    between atoms: _359  and  _361
REMARK  135  A    between atoms: _361  and  _362
REMARK  136  A    between atoms: _361  and  _364
REMARK  137  A    between atoms: _364  and  _365
REMARK  138  A    between atoms: _370  and  _372
REMARK  139  A    between atoms: _372  and  _373
REMARK  140  A    between atoms: _372  and  _375
REMARK  141  A    between atoms: _375  and  _376
REMARK  142  A    between atoms: _378  and  _380
REMARK  143  A    between atoms: _380  and  _381
REMARK  144  A    between atoms: _380  and  _383
REMARK  145  A    between atoms: _386  and  _388
REMARK  146  A    between atoms: _388  and  _389
REMARK  147  A    between atoms: _392  and  _394
REMARK  148  A    between atoms: _394  and  _395
REMARK  149  A    between atoms: _394  and  _397
REMARK  150  A    between atoms: _397  and  _398
REMARK  151  A    between atoms: _408  and  _410
REMARK  152  A    between atoms: _410  and  _411
REMARK  153  A    between atoms: _410  and  _413
REMARK  154  A    between atoms: _416  and  _418
REMARK  155  A    between atoms: _418  and  _419
REMARK  156  A    between atoms: _418  and  _421
REMARK  157  A    between atoms: _421  and  _422
REMARK  158  A    between atoms: _422  and  _423
REMARK  159  A    between atoms: _428  and  _430
REMARK  160  A    between atoms: _430  and  _431
REMARK  161  A    between atoms: _433  and  _435
REMARK  162  A    between atoms: _435  and  _436
REMARK  163  A    between atoms: _439  and  _441
REMARK  164  A    between atoms: _441  and  _442
REMARK  165  A    between atoms: _441  and  _444
REMARK  166  A    between atoms: _444  and  _445
REMARK  167  A    between atoms: _448  and  _450
REMARK  168  A    between atoms: _450  and  _451
REMARK  169  A    between atoms: _453  and  _455
REMARK  170  A    between atoms: _455  and  _456
REMARK  171  A    between atoms: _458  and  _460
REMARK  172  A    between atoms: _460  and  _461
REMARK  173  A    between atoms: _460  and  _463
REMARK  174  A    between atoms: _463  and  _464
REMARK  175  A    between atoms: _464  and  _465
REMARK  176  A    between atoms: _465  and  _466
REMARK  177  A    between atoms: _466  and  _467
REMARK  178  A    between atoms: _471  and  _473
REMARK  179  A    between atoms: _473  and  _474
REMARK  180  A    between atoms: _473  and  _476
REMARK  181  A    between atoms: _476  and  _477
REMARK  182  A    between atoms: _482  and  _483
REMARK  183  A    between atoms: _485  and  _487
REMARK  184  A    between atoms: _487  and  _488
REMARK  185  A    between atoms: _487  and  _490
REMARK  186  A    between atoms: _490  and  _491
REMARK  187  A    between atoms: _501  and  _503
REMARK  188  A    between atoms: _503  and  _504
REMARK  189  A    between atoms: _503  and  _506
REMARK  190  A    between atoms: _506  and  _507
REMARK  191  A    between atoms: _510  and  _512
REMARK  192  A    between atoms: _512  and  _513
REMARK  193  A    between atoms: _512  and  _515
REMARK  194  A    between atoms: _518  and  _520
REMARK  195  A    between atoms: _520  and  _521
REMARK  196  A    between atoms: _520  and  _523
REMARK  197  A    between atoms: _523  and  _524
REMARK  198  A    between atoms: _527  and  _529
REMARK  199  A    between atoms: _529  and  _530
REMARK  200  A    between atoms: _529  and  _532
REMARK  201  A    between atoms: _535  and  _536
REMARK  202  A    between atoms: _541  and  _543
REMARK  203  A    between atoms: _543  and  _544
REMARK  204  A    between atoms: _543  and  _546
REMARK  205  A    between atoms: _546  and  _547
REMARK  206  A    between atoms: _552  and  _553
REMARK  207  A    between atoms: _556  and  _557
REMARK  208  A    between atoms: _562  and  _564
REMARK  209  A    between atoms: _564  and  _565
REMARK  210  A    between atoms: _564  and  _567
REMARK  211  A    between atoms: _567  and  _568
REMARK  212  A    between atoms: _571  and  _573
REMARK  213  A    between atoms: _573  and  _574
REMARK  214  A    between atoms: _573  and  _576
REMARK  215  A    between atoms: _576  and  _577
REMARK  216  A    between atoms: _580  and  _582
REMARK  217  A    between atoms: _582  and  _583
REMARK  218  A    between atoms: _585  and  _587
REMARK  219  A    between atoms: _587  and  _588
REMARK  220  A    between atoms: _587  and  _590
REMARK  221  A    between atoms: _590  and  _591
REMARK  222  A    between atoms: _591  and  _592
REMARK  223  A    between atoms: _592  and  _593
REMARK  224  A    between atoms: _602  and  _604
REMARK  225  A    between atoms: _604  and  _605
REMARK  226  A    between atoms: _604  and  _607
REMARK  227  A    between atoms: _607  and  _608
REMARK                            x       y       z     vdW  Elec       q    Type
REMARK                         _______ _______ _______ _____ _____    ______ ____
ROOT
ATOM      1  O   HOH     1       5.141   3.059  15.267  0.00  0.00    +0.000 OA
ENDROOT
TORSDOF 0
REMARK  Name = ../refined-set-2016/3sm2/3sm2_pocket.pdb
REMARK  227 active torsions:
REMARK  status: ('A' for Active; 'I' for Inactive)
REMARK    1  A    between atoms: _2  and  _3
REMARK    2  A    between atoms: _8  and  _10
REMARK    3  A    between atoms: _10  and  _11
REMARK    4  A    between atoms: _10  and  _13
REMARK    5  A    between atoms: _13  and  _14
REMARK    6  A    between atoms: _17  and  _19
REMARK    7  A    between atoms: _19  and  _20
REMARK    8  A    between atoms: _19  and  _22
REMARK    9  A    between atoms: _25  and  _27
REMARK   10  A    between atoms: _27  and  _28
REMARK   11  A    between atoms: _27  and  _30
REMARK   12  A    between atoms: _30  and  _31
REMARK   13  A    between atoms: _34  and  _36
REMARK   14  A    between atoms: _36  and  _37
REMARK   15  A    between atoms: _36  and  _39
REMARK   16  A    between atoms: _39  and  _40
REMARK   17  A    between atoms: _43  and  _45
REMARK   18  A    between atoms: _45  and  _46
REMARK   19  A    between atoms: _48  and  _50
REMARK   20  A    between atoms: _50  and  _51
REMARK   21  A    between atoms: _54  and  _56
REMARK   22  A    between atoms: _56  and  _57
REMARK   23  A    between atoms: _56  and  _59
REMARK   24  A    between atoms: _59  and  _60
REMARK   25  A    between atoms: _60  and  _61
REMARK   26  A    between atoms: _66  and  _68
REMARK   27  A    between atoms: _68  and  _69
REMARK   28  A    between atoms: _68  and  _71
REMARK   29  A    between atoms: _71  and  _72
REMARK   30  A    between atoms: _77  and  _79
REMARK   31  A    between atoms: _79  and  _80
REMARK   32  A    between atoms: _79  and  _82
REMARK   33  A    between atoms: _82  and  _83
REMARK   34  A    between atoms: _85  and  _87
REMARK   35  A    between atoms: _87  and  _88
REMARK   36  A    between atoms: _87  and  _90
REMARK   37  A    between atoms: _93  and  _95
REMARK   38  A    between atoms: _95  and  _96
REMARK   39  A    between atoms: _95  and  _98
REMARK   40  A    between atoms: _98  and  _99
REMARK   41  A    between atoms: _102  and  _104
REMARK   42  A    between atoms: _104  and  _105
REMARK   43  A    between atoms: _104  and  _107
REMARK   44  A    between atoms: _107  and  _108
REMARK   45  A    between atoms: _118  and  _120
REMARK   46  A    between atoms: _120  and  _121
REMARK   47  A    between atoms: _120  and  _123
REMARK   48  A    between atoms: _126  and  _128
REMARK   49  A    between atoms: _128  and  _129
REMARK   50  A    between atoms: _128  and  _131
REMARK   51  A    between atoms: _131  and  _132
REMARK   52  A    between atoms: _132  and  _133
REMARK   53  A    between atoms: _138  and  _140
REMARK   54  A    between atoms: _140  and  _141
REMARK   55  A    between atoms: _143  and  _145
REMARK   56  A    between atoms: _145  and  _146
REMARK   57  A    between atoms: _149  and  _151
REMARK   58  A    between atoms: _151  and  _152
REMARK   59  A    between atoms: _151  and  _154
REMARK   60  A    between atoms: _154  and  _155
REMARK   61  A    between atoms: _158  and  _160
REMARK   62  A    between atoms: _160  and  _161
REMARK   63  A    between atoms: _163  and  _165
REMARK   64  A    between atoms: _165  and  _166
REMARK   65  A    between atoms: _165  and  _168
REMARK   66  A    between atoms: _168  and  _169
REMARK   67  A    between atoms: _174  and  _175
REMARK   68  A    between atoms: _177  and  _179
REMARK   69  A    between atoms: _179  and  _180
REMARK   70  A    between atoms: _179  and  _182
REMARK   71  A    between atoms: _182  and  _183
REMARK   72  A    between atoms: _193  and  _195
REMARK   73  A    between atoms: _195  and  _196
REMARK   74  A    between atoms: _195  and  _198
REMARK   75  A    between atoms: _198  and  _199
REMARK   76  A    between atoms: _202  and  _204
REMARK   77  A    between atoms: _204  and  _205
REMARK   78  A    between atoms: _204  and  _207
REMARK   79  A    between atoms: _210  and  _212
REMARK   80  A    between atoms: _212  and  _213
REMARK   81  A    between atoms: _212  and  _215
REMARK   82  A    between atoms: _215  and  _216
REMARK   83  A    between atoms: _219  and  _221
REMARK   84  A    between atoms: _221  and  _222
REMARK   85  A    between atoms: _221  and  _224
REMARK   86  A    between atoms: _227  and  _228
REMARK   87  A    between atoms: _233  and  _235
REMARK   88  A    between atoms: _235  and  _236
REMARK   89  A    between atoms: _235  and  _238
REMARK   90  A    between atoms: _238  and  _239
REMARK   91  A    between atoms: _244  and  _245
REMARK   92  A    between atoms: _248  and  _249
REMARK   93  A    between atoms: _254  and  _256
REMARK   94  A    between atoms: _256  and  _257
REMARK   95  A    between atoms: _256  and  _259
REMARK   96  A    between atoms: _259  and  _260
REMARK   97  A    between atoms: _263  and  _265
REMARK   98  A    between atoms: _265  and  _266
REMARK   99  A    between atoms: _268  and  _270
REMARK  100  A    between atoms: _270  and  _271
REMARK  101  A    between atoms: _270  and  _273
REMARK  102  A    between atoms: _273  and  _274
REMARK  103  A    between atoms: _274  and  _275
REMARK  104  A    between atoms: _275  and  _276
REMARK  105  A    between atoms: _285  and  _287
REMARK  106  A    between atoms: _287  and  _288
REMARK  107  A    between atoms: _287  and  _290
REMARK  108  A    between atoms: _290  and  _291
REMARK  109  A    between atoms: _295  and  _296
REMARK  110  A    between atoms: _301  and  _303
REMARK  111  A    between atoms: _303  and  _304
REMARK  112  A    between atoms: _303  and  _306
REMARK  113  A    between atoms: _306  and  _307
REMARK  114  A    between atoms: _310  and  _312
REMARK  115  A    between atoms: _312  and  _313
REMARK  116  A    between atoms: _312  and  _315
REMARK  117  A    between atoms: _318  and  _320
REMARK  118  A    between atoms: _320  and  _321
REMARK  119  A    between atoms: _320  and  _323
REMARK  120  A    between atoms: _323  and  _324
REMARK  121  A    between atoms: _327  and  _329
REMARK  122  A    between atoms: _329  and  _330
REMARK  123  A    between atoms: _329  and  _332
REMARK  124  A    between atoms: _332  and  _333
REMARK  125  A    between atoms: _336  and  _338
REMARK  126  A    between atoms: _338  and  _339
REMARK  127  A    between atoms: _341  and  _343
REMARK  128  A    between atoms: _343  and  _344
REMARK  129  A    between atoms: _347  and  _349
REMARK  130  A    between atoms: _349  and  _350
REMARK  131  A    between atoms: _349  and  _352
REMARK  132  A    between atoms: _352  and  _353
REMARK  133  A    between atoms: _353  and  _354
REMARK  134  A    between atoms: _359  and  _361
REMARK  135  A    between atoms: _361  and  _362
REMARK  136  A    between atoms: _361  and  _364
REMARK  137  A    between atoms: _364  and  _365
REMARK  138  A    between atoms: _370  and  _372
REMARK  139  A    between atoms: _372  and  _373
REMARK  140  A    between atoms: _372  and  _375
REMARK  141  A    between atoms: _375  and  _376
REMARK  142  A    between atoms: _378  and  _380
REMARK  143  A    between atoms: _380  and  _381
REMARK  144  A    between atoms: _380  and  _383
REMARK  145  A    between atoms: _386  and  _388
REMARK  146  A    between atoms: _388  and  _389
REMARK  147  A    between atoms: _392  and  _394
REMARK  148  A    between atoms: _394  and  _395
REMARK  149  A    between atoms: _394  and  _397
REMARK  150  A    between atoms: _397  and  _398
REMARK  151  A    between atoms: _408  and  _410
REMARK  152  A    between atoms: _410  and  _411
REMARK  153  A    between atoms: _410  and  _413
REMARK  154  A    between atoms: _416  and  _418
REMARK  155  A    between atoms: _418  and  _419
REMARK  156  A    between atoms: _418  and  _421
REMARK  157  A    between atoms: _421  and  _422
REMARK  158  A    between atoms: _422  and  _423
REMARK  159  A    between atoms: _428  and  _430
REMARK  160  A    between atoms: _430  and  _431
REMARK  161  A    between atoms: _433  and  _435
REMARK  162  A    between atoms: _435  and  _436
REMARK  163  A    between atoms: _439  and  _441
REMARK  164  A    between atoms: _441  and  _442
REMARK  165  A    between atoms: _441  and  _444
REMARK  166  A    between atoms: _444  and  _445
REMARK  167  A    between atoms: _448  and  _450
REMARK  168  A    between atoms: _450  and  _451
REMARK  169  A    between atoms: _453  and  _455
REMARK  170  A    between atoms: _455  and  _456
REMARK  171  A    between atoms: _458  and  _460
REMARK  172  A    between atoms: _460  and  _461
REMARK  173  A    between atoms: _460  and  _463
REMARK  174  A    between atoms: _463  and  _464
REMARK  175  A    between atoms: _464  and  _465
REMARK  176  A    between atoms: _465  and  _466
REMARK  177  A    between atoms: _466  and  _467
REMARK  178  A    between atoms: _471  and  _473
REMARK  179  A    between atoms: _473  and  _474
REMARK  180  A    between atoms: _473  and  _476
REMARK  181  A    between atoms: _476  and  _477
REMARK  182  A    between atoms: _482  and  _483
REMARK  183  A    between atoms: _485  and  _487
REMARK  184  A    between atoms: _487  and  _488
REMARK  185  A    between atoms: _487  and  _490
REMARK  186  A    between atoms: _490  and  _491
REMARK  187  A    between atoms: _501  and  _503
REMARK  188  A    between atoms: _503  and  _504
REMARK  189  A    between atoms: _503  and  _506
REMARK  190  A    between atoms: _506  and  _507
REMARK  191  A    between atoms: _510  and  _512
REMARK  192  A    between atoms: _512  and  _513
REMARK  193  A    between atoms: _512  and  _515
REMARK  194  A    between atoms: _518  and  _520
REMARK  195  A    between atoms: _520  and  _521
REMARK  196  A    between atoms: _520  and  _523
REMARK  197  A    between atoms: _523  and  _524
REMARK  198  A    between atoms: _527  and  _529
REMARK  199  A    between atoms: _529  and  _530
REMARK  200  A    between atoms: _529  and  _532
REMARK  201  A    between atoms: _535  and  _536
REMARK  202  A    between atoms: _541  and  _543
REMARK  203  A    between atoms: _543  and  _544
REMARK  204  A    between atoms: _543  and  _546
REMARK  205  A    between atoms: _546  and  _547
REMARK  206  A    between atoms: _552  and  _553
REMARK  207  A    between atoms: _556  and  _557
REMARK  208  A    between atoms: _562  and  _564
REMARK  209  A    between atoms: _564  and  _565
REMARK  210  A    between atoms: _564  and  _567
REMARK  211  A    between atoms: _567  and  _568
REMARK  212  A    between atoms: _571  and  _573
REMARK  213  A    between atoms: _573  and  _574
REMARK  214  A    between atoms: _573  and  _576
REMARK  215  A    between atoms: _576  and  _577
REMARK  216  A    between atoms: _580  and  _582
REMARK  217  A    between atoms: _582  and  _583
REMARK  218  A    between atoms: _585  and  _587
REMARK  219  A    between atoms: _587  and  _588
REMARK  220  A    between atoms: _587  and  _590
REMARK  221  A    between atoms: _590  and  _591
REMARK  222  A    between atoms: _591  and  _592
REMARK  223  A    between atoms: _592  and  _593
REMARK  224  A    between atoms: _602  and  _604
REMARK  225  A    between atoms: _604  and  _605
REMARK  226  A    between atoms: _604  and  _607
REMARK  227  A    between atoms: _607  and  _608
REMARK                            x       y       z     vdW  Elec       q    Type
REMARK                         _______ _______ _______ _____ _____    ______ ____
ROOT
ATOM      1  O   HOH     1      -6.077   2.292  -3.652  0.00  0.00    +0.000 OA
ENDROOT
TORSDOF 0
REMARK  Name = ../refined-set-2016/3sm2/3sm2_pocket.pdb
REMARK  227 active torsions:
REMARK  status: ('A' for Active; 'I' for Inactive)
REMARK    1  A    between atoms: _2  and  _3
REMARK    2  A    between atoms: _8  and  _10
REMARK    3  A    between atoms: _10  and  _11
REMARK    4  A    between atoms: _10  and  _13
REMARK    5  A    between atoms: _13  and  _14
REMARK    6  A    between atoms: _17  and  _19
REMARK    7  A    between atoms: _19  and  _20
REMARK    8  A    between atoms: _19  and  _22
REMARK    9  A    between atoms: _25  and  _27
REMARK   10  A    between atoms: _27  and  _28
REMARK   11  A    between atoms: _27  and  _30
REMARK   12  A    between atoms: _30  and  _31
REMARK   13  A    between atoms: _34  and  _36
REMARK   14  A    between atoms: _36  and  _37
REMARK   15  A    between atoms: _36  and  _39
REMARK   16  A    between atoms: _39  and  _40
REMARK   17  A    between atoms: _43  and  _45
REMARK   18  A    between atoms: _45  and  _46
REMARK   19  A    between atoms: _48  and  _50
REMARK   20  A    between atoms: _50  and  _51
REMARK   21  A    between atoms: _54  and  _56
REMARK   22  A    between atoms: _56  and  _57
REMARK   23  A    between atoms: _56  and  _59
REMARK   24  A    between atoms: _59  and  _60
REMARK   25  A    between atoms: _60  and  _61
REMARK   26  A    between atoms: _66  and  _68
REMARK   27  A    between atoms: _68  and  _69
REMARK   28  A    between atoms: _68  and  _71
REMARK   29  A    between atoms: _71  and  _72
REMARK   30  A    between atoms: _77  and  _79
REMARK   31  A    between atoms: _79  and  _80
REMARK   32  A    between atoms: _79  and  _82
REMARK   33  A    between atoms: _82  and  _83
REMARK   34  A    between atoms: _85  and  _87
REMARK   35  A    between atoms: _87  and  _88
REMARK   36  A    between atoms: _87  and  _90
REMARK   37  A    between atoms: _93  and  _95
REMARK   38  A    between atoms: _95  and  _96
REMARK   39  A    between atoms: _95  and  _98
REMARK   40  A    between atoms: _98  and  _99
REMARK   41  A    between atoms: _102  and  _104
REMARK   42  A    between atoms: _104  and  _105
REMARK   43  A    between atoms: _104  and  _107
REMARK   44  A    between atoms: _107  and  _108
REMARK   45  A    between atoms: _118  and  _120
REMARK   46  A    between atoms: _120  and  _121
REMARK   47  A    between atoms: _120  and  _123
REMARK   48  A    between atoms: _126  and  _128
REMARK   49  A    between atoms: _128  and  _129
REMARK   50  A    between atoms: _128  and  _131
REMARK   51  A    between atoms: _131  and  _132
REMARK   52  A    between atoms: _132  and  _133
REMARK   53  A    between atoms: _138  and  _140
REMARK   54  A    between atoms: _140  and  _141
REMARK   55  A    between atoms: _143  and  _145
REMARK   56  A    between atoms: _145  and  _146
REMARK   57  A    between atoms: _149  and  _151
REMARK   58  A    between atoms: _151  and  _152
REMARK   59  A    between atoms: _151  and  _154
REMARK   60  A    between atoms: _154  and  _155
REMARK   61  A    between atoms: _158  and  _160
REMARK   62  A    between atoms: _160  and  _161
REMARK   63  A    between atoms: _163  and  _165
REMARK   64  A    between atoms: _165  and  _166
REMARK   65  A    between atoms: _165  and  _168
REMARK   66  A    between atoms: _168  and  _169
REMARK   67  A    between atoms: _174  and  _175
REMARK   68  A    between atoms: _177  and  _179
REMARK   69  A    between atoms: _179  and  _180
REMARK   70  A    between atoms: _179  and  _182
REMARK   71  A    between atoms: _182  and  _183
REMARK   72  A    between atoms: _193  and  _195
REMARK   73  A    between atoms: _195  and  _196
REMARK   74  A    between atoms: _195  and  _198
REMARK   75  A    between atoms: _198  and  _199
REMARK   76  A    between atoms: _202  and  _204
REMARK   77  A    between atoms: _204  and  _205
REMARK   78  A    between atoms: _204  and  _207
REMARK   79  A    between atoms: _210  and  _212
REMARK   80  A    between atoms: _212  and  _213
REMARK   81  A    between atoms: _212  and  _215
REMARK   82  A    between atoms: _215  and  _216
REMARK   83  A    between atoms: _219  and  _221
REMARK   84  A    between atoms: _221  and  _222
REMARK   85  A    between atoms: _221  and  _224
REMARK   86  A    between atoms: _227  and  _228
REMARK   87  A    between atoms: _233  and  _235
REMARK   88  A    between atoms: _235  and  _236
REMARK   89  A    between atoms: _235  and  _238
REMARK   90  A    between atoms: _238  and  _239
REMARK   91  A    between atoms: _244  and  _245
REMARK   92  A    between atoms: _248  and  _249
REMARK   93  A    between atoms: _254  and  _256
REMARK   94  A    between atoms: _256  and  _257
REMARK   95  A    between atoms: _256  and  _259
REMARK   96  A    between atoms: _259  and  _260
REMARK   97  A    between atoms: _263  and  _265
REMARK   98  A    between atoms: _265  and  _266
REMARK   99  A    between atoms: _268  and  _270
REMARK  100  A    between atoms: _270  and  _271
REMARK  101  A    between atoms: _270  and  _273
REMARK  102  A    between atoms: _273  and  _274
REMARK  103  A    between atoms: _274  and  _275
REMARK  104  A    between atoms: _275  and  _276
REMARK  105  A    between atoms: _285  and  _287
REMARK  106  A    between atoms: _287  and  _288
REMARK  107  A    between atoms: _287  and  _290
REMARK  108  A    between atoms: _290  and  _291
REMARK  109  A    between atoms: _295  and  _296
REMARK  110  A    between atoms: _301  and  _303
REMARK  111  A    between atoms: _303  and  _304
REMARK  112  A    between atoms: _303  and  _306
REMARK  113  A    between atoms: _306  and  _307
REMARK  114  A    between atoms: _310  and  _312
REMARK  115  A    between atoms: _312  and  _313
REMARK  116  A    between atoms: _312  and  _315
REMARK  117  A    between atoms: _318  and  _320
REMARK  118  A    between atoms: _320  and  _321
REMARK  119  A    between atoms: _320  and  _323
REMARK  120  A    between atoms: _323  and  _324
REMARK  121  A    between atoms: _327  and  _329
REMARK  122  A    between atoms: _329  and  _330
REMARK  123  A    between atoms: _329  and  _332
REMARK  124  A    between atoms: _332  and  _333
REMARK  125  A    between atoms: _336  and  _338
REMARK  126  A    between atoms: _338  and  _339
REMARK  127  A    between atoms: _341  and  _343
REMARK  128  A    between atoms: _343  and  _344
REMARK  129  A    between atoms: _347  and  _349
REMARK  130  A    between atoms: _349  and  _350
REMARK  131  A    between atoms: _349  and  _352
REMARK  132  A    between atoms: _352  and  _353
REMARK  133  A    between atoms: _353  and  _354
REMARK  134  A    between atoms: _359  and  _361
REMARK  135  A    between atoms: _361  and  _362
REMARK  136  A    between atoms: _361  and  _364
REMARK  137  A    between atoms: _364  and  _365
REMARK  138  A    between atoms: _370  and  _372
REMARK  139  A    between atoms: _372  and  _373
REMARK  140  A    between atoms: _372  and  _375
REMARK  141  A    between atoms: _375  and  _376
REMARK  142  A    between atoms: _378  and  _380
REMARK  143  A    between atoms: _380  and  _381
REMARK  144  A    between atoms: _380  and  _383
REMARK  145  A    between atoms: _386  and  _388
REMARK  146  A    between atoms: _388  and  _389
REMARK  147  A    between atoms: _392  and  _394
REMARK  148  A    between atoms: _394  and  _395
REMARK  149  A    between atoms: _394  and  _397
REMARK  150  A    between atoms: _397  and  _398
REMARK  151  A    between atoms: _408  and  _410
REMARK  152  A    between atoms: _410  and  _411
REMARK  153  A    between atoms: _410  and  _413
REMARK  154  A    between atoms: _416  and  _418
REMARK  155  A    between atoms: _418  and  _419
REMARK  156  A    between atoms: _418  and  _421
REMARK  157  A    between atoms: _421  and  _422
REMARK  158  A    between atoms: _422  and  _423
REMARK  159  A    between atoms: _428  and  _430
REMARK  160  A    between atoms: _430  and  _431
REMARK  161  A    between atoms: _433  and  _435
REMARK  162  A    between atoms: _435  and  _436
REMARK  163  A    between atoms: _439  and  _441
REMARK  164  A    between atoms: _441  and  _442
REMARK  165  A    between atoms: _441  and  _444
REMARK  166  A    between atoms: _444  and  _445
REMARK  167  A    between atoms: _448  and  _450
REMARK  168  A    between atoms: _450  and  _451
REMARK  169  A    between atoms: _453  and  _455
REMARK  170  A    between atoms: _455  and  _456
REMARK  171  A    between atoms: _458  and  _460
REMARK  172  A    between atoms: _460  and  _461
REMARK  173  A    between atoms: _460  and  _463
REMARK  174  A    between atoms: _463  and  _464
REMARK  175  A    between atoms: _464  and  _465
REMARK  176  A    between atoms: _465  and  _466
REMARK  177  A    between atoms: _466  and  _467
REMARK  178  A    between atoms: _471  and  _473
REMARK  179  A    between atoms: _473  and  _474
REMARK  180  A    between atoms: _473  and  _476
REMARK  181  A    between atoms: _476  and  _477
REMARK  182  A    between atoms: _482  and  _483
REMARK  183  A    between atoms: _485  and  _487
REMARK  184  A    between atoms: _487  and  _488
REMARK  185  A    between atoms: _487  and  _490
REMARK  186  A    between atoms: _490  and  _491
REMARK  187  A    between atoms: _501  and  _503
REMARK  188  A    between atoms: _503  and  _504
REMARK  189  A    between atoms: _503  and  _506
REMARK  190  A    between atoms: _506  and  _507
REMARK  191  A    between atoms: _510  and  _512
REMARK  192  A    between atoms: _512  and  _513
REMARK  193  A    between atoms: _512  and  _515
REMARK  194  A    between atoms: _518  and  _520
REMARK  195  A    between atoms: _520  and  _521
REMARK  196  A    between atoms: _520  and  _523
REMARK  197  A    between atoms: _523  and  _524
REMARK  198  A    between atoms: _527  and  _529
REMARK  199  A    between atoms: _529  and  _530
REMARK  200  A    between atoms: _529  and  _532
REMARK  201  A    between atoms: _535  and  _536
REMARK  202  A    between atoms: _541  and  _543
REMARK  203  A    between atoms: _543  and  _544
REMARK  204  A    between atoms: _543  and  _546
REMARK  205  A    between atoms: _546  and  _547
REMARK  206  A    between atoms: _552  and  _553
REMARK  207  A    between atoms: _556  and  _557
REMARK  208  A    between atoms: _562  and  _564
REMARK  209  A    between atoms: _564  and  _565
REMARK  210  A    between atoms: _564  and  _567
REMARK  211  A    between atoms: _567  and  _568
REMARK  212  A    between atoms: _571  and  _573
REMARK  213  A    between atoms: _573  and  _574
REMARK  214  A    between atoms: _573  and  _576
REMARK  215  A    between atoms: _576  and  _577
REMARK  216  A    between atoms: _580  and  _582
REMARK  217  A    between atoms: _582  and  _583
REMARK  218  A    between atoms: _585  and  _587
REMARK  219  A    between atoms: _587  and  _588
REMARK  220  A    between atoms: _587  and  _590
REMARK  221  A    between atoms: _590  and  _591
REMARK  222  A    between atoms: _591  and  _592
REMARK  223  A    between atoms: _592  and  _593
REMARK  224  A    between atoms: _602  and  _604
REMARK  225  A    between atoms: _604  and  _605
REMARK  226  A    between atoms: _604  and  _607
REMARK  227  A    between atoms: _607  and  _608
REMARK                            x       y       z     vdW  Elec       q    Type
REMARK                         _______ _______ _______ _____ _____    ______ ____
ROOT
ATOM      1  O   HOH     1      -8.150   7.971   1.937  0.00  0.00    +0.000 OA
ENDROOT
TORSDOF 0
REMARK  Name = ../refined-set-2016/3sm2/3sm2_pocket.pdb
REMARK  227 active torsions:
REMARK  status: ('A' for Active; 'I' for Inactive)
REMARK    1  A    between atoms: _2  and  _3
REMARK    2  A    between atoms: _8  and  _10
REMARK    3  A    between atoms: _10  and  _11
REMARK    4  A    between atoms: _10  and  _13
REMARK    5  A    between atoms: _13  and  _14
REMARK    6  A    between atoms: _17  and  _19
REMARK    7  A    between atoms: _19  and  _20
REMARK    8  A    between atoms: _19  and  _22
REMARK    9  A    between atoms: _25  and  _27
REMARK   10  A    between atoms: _27  and  _28
REMARK   11  A    between atoms: _27  and  _30
REMARK   12  A    between atoms: _30  and  _31
REMARK   13  A    between atoms: _34  and  _36
REMARK   14  A    between atoms: _36  and  _37
REMARK   15  A    between atoms: _36  and  _39
REMARK   16  A    between atoms: _39  and  _40
REMARK   17  A    between atoms: _43  and  _45
REMARK   18  A    between atoms: _45  and  _46
REMARK   19  A    between atoms: _48  and  _50
REMARK   20  A    between atoms: _50  and  _51
REMARK   21  A    between atoms: _54  and  _56
REMARK   22  A    between atoms: _56  and  _57
REMARK   23  A    between atoms: _56  and  _59
REMARK   24  A    between atoms: _59  and  _60
REMARK   25  A    between atoms: _60  and  _61
REMARK   26  A    between atoms: _66  and  _68
REMARK   27  A    between atoms: _68  and  _69
REMARK   28  A    between atoms: _68  and  _71
REMARK   29  A    between atoms: _71  and  _72
REMARK   30  A    between atoms: _77  and  _79
REMARK   31  A    between atoms: _79  and  _80
REMARK   32  A    between atoms: _79  and  _82
REMARK   33  A    between atoms: _82  and  _83
REMARK   34  A    between atoms: _85  and  _87
REMARK   35  A    between atoms: _87  and  _88
REMARK   36  A    between atoms: _87  and  _90
REMARK   37  A    between atoms: _93  and  _95
REMARK   38  A    between atoms: _95  and  _96
REMARK   39  A    between atoms: _95  and  _98
REMARK   40  A    between atoms: _98  and  _99
REMARK   41  A    between atoms: _102  and  _104
REMARK   42  A    between atoms: _104  and  _105
REMARK   43  A    between atoms: _104  and  _107
REMARK   44  A    between atoms: _107  and  _108
REMARK   45  A    between atoms: _118  and  _120
REMARK   46  A    between atoms: _120  and  _121
REMARK   47  A    between atoms: _120  and  _123
REMARK   48  A    between atoms: _126  and  _128
REMARK   49  A    between atoms: _128  and  _129
REMARK   50  A    between atoms: _128  and  _131
REMARK   51  A    between atoms: _131  and  _132
REMARK   52  A    between atoms: _132  and  _133
REMARK   53  A    between atoms: _138  and  _140
REMARK   54  A    between atoms: _140  and  _141
REMARK   55  A    between atoms: _143  and  _145
REMARK   56  A    between atoms: _145  and  _146
REMARK   57  A    between atoms: _149  and  _151
REMARK   58  A    between atoms: _151  and  _152
REMARK   59  A    between atoms: _151  and  _154
REMARK   60  A    between atoms: _154  and  _155
REMARK   61  A    between atoms: _158  and  _160
REMARK   62  A    between atoms: _160  and  _161
REMARK   63  A    between atoms: _163  and  _165
REMARK   64  A    between atoms: _165  and  _166
REMARK   65  A    between atoms: _165  and  _168
REMARK   66  A    between atoms: _168  and  _169
REMARK   67  A    between atoms: _174  and  _175
REMARK   68  A    between atoms: _177  and  _179
REMARK   69  A    between atoms: _179  and  _180
REMARK   70  A    between atoms: _179  and  _182
REMARK   71  A    between atoms: _182  and  _183
REMARK   72  A    between atoms: _193  and  _195
REMARK   73  A    between atoms: _195  and  _196
REMARK   74  A    between atoms: _195  and  _198
REMARK   75  A    between atoms: _198  and  _199
REMARK   76  A    between atoms: _202  and  _204
REMARK   77  A    between atoms: _204  and  _205
REMARK   78  A    between atoms: _204  and  _207
REMARK   79  A    between atoms: _210  and  _212
REMARK   80  A    between atoms: _212  and  _213
REMARK   81  A    between atoms: _212  and  _215
REMARK   82  A    between atoms: _215  and  _216
REMARK   83  A    between atoms: _219  and  _221
REMARK   84  A    between atoms: _221  and  _222
REMARK   85  A    between atoms: _221  and  _224
REMARK   86  A    between atoms: _227  and  _228
REMARK   87  A    between atoms: _233  and  _235
REMARK   88  A    between atoms: _235  and  _236
REMARK   89  A    between atoms: _235  and  _238
REMARK   90  A    between atoms: _238  and  _239
REMARK   91  A    between atoms: _244  and  _245
REMARK   92  A    between atoms: _248  and  _249
REMARK   93  A    between atoms: _254  and  _256
REMARK   94  A    between atoms: _256  and  _257
REMARK   95  A    between atoms: _256  and  _259
REMARK   96  A    between atoms: _259  and  _260
REMARK   97  A    between atoms: _263  and  _265
REMARK   98  A    between atoms: _265  and  _266
REMARK   99  A    between atoms: _268  and  _270
REMARK  100  A    between atoms: _270  and  _271
REMARK  101  A    between atoms: _270  and  _273
REMARK  102  A    between atoms: _273  and  _274
REMARK  103  A    between atoms: _274  and  _275
REMARK  104  A    between atoms: _275  and  _276
REMARK  105  A    between atoms: _285  and  _287
REMARK  106  A    between atoms: _287  and  _288
REMARK  107  A    between atoms: _287  and  _290
REMARK  108  A    between atoms: _290  and  _291
REMARK  109  A    between atoms: _295  and  _296
REMARK  110  A    between atoms: _301  and  _303
REMARK  111  A    between atoms: _303  and  _304
REMARK  112  A    between atoms: _303  and  _306
REMARK  113  A    between atoms: _306  and  _307
REMARK  114  A    between atoms: _310  and  _312
REMARK  115  A    between atoms: _312  and  _313
REMARK  116  A    between atoms: _312  and  _315
REMARK  117  A    between atoms: _318  and  _320
REMARK  118  A    between atoms: _320  and  _321
REMARK  119  A    between atoms: _320  and  _323
REMARK  120  A    between atoms: _323  and  _324
REMARK  121  A    between atoms: _327  and  _329
REMARK  122  A    between atoms: _329  and  _330
REMARK  123  A    between atoms: _329  and  _332
REMARK  124  A    between atoms: _332  and  _333
REMARK  125  A    between atoms: _336  and  _338
REMARK  126  A    between atoms: _338  and  _339
REMARK  127  A    between atoms: _341  and  _343
REMARK  128  A    between atoms: _343  and  _344
REMARK  129  A    between atoms: _347  and  _349
REMARK  130  A    between atoms: _349  and  _350
REMARK  131  A    between atoms: _349  and  _352
REMARK  132  A    between atoms: _352  and  _353
REMARK  133  A    between atoms: _353  and  _354
REMARK  134  A    between atoms: _359  and  _361
REMARK  135  A    between atoms: _361  and  _362
REMARK  136  A    between atoms: _361  and  _364
REMARK  137  A    between atoms: _364  and  _365
REMARK  138  A    between atoms: _370  and  _372
REMARK  139  A    between atoms: _372  and  _373
REMARK  140  A    between atoms: _372  and  _375
REMARK  141  A    between atoms: _375  and  _376
REMARK  142  A    between atoms: _378  and  _380
REMARK  143  A    between atoms: _380  and  _381
REMARK  144  A    between atoms: _380  and  _383
REMARK  145  A    between atoms: _386  and  _388
REMARK  146  A    between atoms: _388  and  _389
REMARK  147  A    between atoms: _392  and  _394
REMARK  148  A    between atoms: _394  and  _395
REMARK  149  A    between atoms: _394  and  _397
REMARK  150  A    between atoms: _397  and  _398
REMARK  151  A    between atoms: _408  and  _410
REMARK  152  A    between atoms: _410  and  _411
REMARK  153  A    between atoms: _410  and  _413
REMARK  154  A    between atoms: _416  and  _418
REMARK  155  A    between atoms: _418  and  _419
REMARK  156  A    between atoms: _418  and  _421
REMARK  157  A    between atoms: _421  and  _422
REMARK  158  A    between atoms: _422  and  _423
REMARK  159  A    between atoms: _428  and  _430
REMARK  160  A    between atoms: _430  and  _431
REMARK  161  A    between atoms: _433  and  _435
REMARK  162  A    between atoms: _435  and  _436
REMARK  163  A    between atoms: _439  and  _441
REMARK  164  A    between atoms: _441  and  _442
REMARK  165  A    between atoms: _441  and  _444
REMARK  166  A    between atoms: _444  and  _445
REMARK  167  A    between atoms: _448  and  _450
REMARK  168  A    between atoms: _450  and  _451
REMARK  169  A    between atoms: _453  and  _455
REMARK  170  A    between atoms: _455  and  _456
REMARK  171  A    between atoms: _458  and  _460
REMARK  172  A    between atoms: _460  and  _461
REMARK  173  A    between atoms: _460  and  _463
REMARK  174  A    between atoms: _463  and  _464
REMARK  175  A    between atoms: _464  and  _465
REMARK  176  A    between atoms: _465  and  _466
REMARK  177  A    between atoms: _466  and  _467
REMARK  178  A    between atoms: _471  and  _473
REMARK  179  A    between atoms: _473  and  _474
REMARK  180  A    between atoms: _473  and  _476
REMARK  181  A    between atoms: _476  and  _477
REMARK  182  A    between atoms: _482  and  _483
REMARK  183  A    between atoms: _485  and  _487
REMARK  184  A    between atoms: _487  and  _488
REMARK  185  A    between atoms: _487  and  _490
REMARK  186  A    between atoms: _490  and  _491
REMARK  187  A    between atoms: _501  and  _503
REMARK  188  A    between atoms: _503  and  _504
REMARK  189  A    between atoms: _503  and  _506
REMARK  190  A    between atoms: _506  and  _507
REMARK  191  A    between atoms: _510  and  _512
REMARK  192  A    between atoms: _512  and  _513
REMARK  193  A    between atoms: _512  and  _515
REMARK  194  A    between atoms: _518  and  _520
REMARK  195  A    between atoms: _520  and  _521
REMARK  196  A    between atoms: _520  and  _523
REMARK  197  A    between atoms: _523  and  _524
REMARK  198  A    between atoms: _527  and  _529
REMARK  199  A    between atoms: _529  and  _530
REMARK  200  A    between atoms: _529  and  _532
REMARK  201  A    between atoms: _535  and  _536
REMARK  202  A    between atoms: _541  and  _543
REMARK  203  A    between atoms: _543  and  _544
REMARK  204  A    between atoms: _543  and  _546
REMARK  205  A    between atoms: _546  and  _547
REMARK  206  A    between atoms: _552  and  _553
REMARK  207  A    between atoms: _556  and  _557
REMARK  208  A    between atoms: _562  and  _564
REMARK  209  A    between atoms: _564  and  _565
REMARK  210  A    between atoms: _564  and  _567
REMARK  211  A    between atoms: _567  and  _568
REMARK  212  A    between atoms: _571  and  _573
REMARK  213  A    between atoms: _573  and  _574
REMARK  214  A    between atoms: _573  and  _576
REMARK  215  A    between atoms: _576  and  _577
REMARK  216  A    between atoms: _580  and  _582
REMARK  217  A    between atoms: _582  and  _583
REMARK  218  A    between atoms: _585  and  _587
REMARK  219  A    between atoms: _587  and  _588
REMARK  220  A    between atoms: _587  and  _590
REMARK  221  A    between atoms: _590  and  _591
REMARK  222  A    between atoms: _591  and  _592
REMARK  223  A    between atoms: _592  and  _593
REMARK  224  A    between atoms: _602  and  _604
REMARK  225  A    between atoms: _604  and  _605
REMARK  226  A    between atoms: _604  and  _607
REMARK  227  A    between atoms: _607  and  _608
REMARK                            x       y       z     vdW  Elec       q    Type
REMARK                         _______ _______ _______ _____ _____    ______ ____
ROOT
ATOM      1  O   HOH     1      -7.278   3.568   4.208  0.00  0.00    +0.000 OA
ENDROOT
TORSDOF 0
REMARK  Name = ../refined-set-2016/3sm2/3sm2_pocket.pdb
REMARK  227 active torsions:
REMARK  status: ('A' for Active; 'I' for Inactive)
REMARK    1  A    between atoms: _2  and  _3
REMARK    2  A    between atoms: _8  and  _10
REMARK    3  A    between atoms: _10  and  _11
REMARK    4  A    between atoms: _10  and  _13
REMARK    5  A    between atoms: _13  and  _14
REMARK    6  A    between atoms: _17  and  _19
REMARK    7  A    between atoms: _19  and  _20
REMARK    8  A    between atoms: _19  and  _22
REMARK    9  A    between atoms: _25  and  _27
REMARK   10  A    between atoms: _27  and  _28
REMARK   11  A    between atoms: _27  and  _30
REMARK   12  A    between atoms: _30  and  _31
REMARK   13  A    between atoms: _34  and  _36
REMARK   14  A    between atoms: _36  and  _37
REMARK   15  A    between atoms: _36  and  _39
REMARK   16  A    between atoms: _39  and  _40
REMARK   17  A    between atoms: _43  and  _45
REMARK   18  A    between atoms: _45  and  _46
REMARK   19  A    between atoms: _48  and  _50
REMARK   20  A    between atoms: _50  and  _51
REMARK   21  A    between atoms: _54  and  _56
REMARK   22  A    between atoms: _56  and  _57
REMARK   23  A    between atoms: _56  and  _59
REMARK   24  A    between atoms: _59  and  _60
REMARK   25  A    between atoms: _60  and  _61
REMARK   26  A    between atoms: _66  and  _68
REMARK   27  A    between atoms: _68  and  _69
REMARK   28  A    between atoms: _68  and  _71
REMARK   29  A    between atoms: _71  and  _72
REMARK   30  A    between atoms: _77  and  _79
REMARK   31  A    between atoms: _79  and  _80
REMARK   32  A    between atoms: _79  and  _82
REMARK   33  A    between atoms: _82  and  _83
REMARK   34  A    between atoms: _85  and  _87
REMARK   35  A    between atoms: _87  and  _88
REMARK   36  A    between atoms: _87  and  _90
REMARK   37  A    between atoms: _93  and  _95
REMARK   38  A    between atoms: _95  and  _96
REMARK   39  A    between atoms: _95  and  _98
REMARK   40  A    between atoms: _98  and  _99
REMARK   41  A    between atoms: _102  and  _104
REMARK   42  A    between atoms: _104  and  _105
REMARK   43  A    between atoms: _104  and  _107
REMARK   44  A    between atoms: _107  and  _108
REMARK   45  A    between atoms: _118  and  _120
REMARK   46  A    between atoms: _120  and  _121
REMARK   47  A    between atoms: _120  and  _123
REMARK   48  A    between atoms: _126  and  _128
REMARK   49  A    between atoms: _128  and  _129
REMARK   50  A    between atoms: _128  and  _131
REMARK   51  A    between atoms: _131  and  _132
REMARK   52  A    between atoms: _132  and  _133
REMARK   53  A    between atoms: _138  and  _140
REMARK   54  A    between atoms: _140  and  _141
REMARK   55  A    between atoms: _143  and  _145
REMARK   56  A    between atoms: _145  and  _146
REMARK   57  A    between atoms: _149  and  _151
REMARK   58  A    between atoms: _151  and  _152
REMARK   59  A    between atoms: _151  and  _154
REMARK   60  A    between atoms: _154  and  _155
REMARK   61  A    between atoms: _158  and  _160
REMARK   62  A    between atoms: _160  and  _161
REMARK   63  A    between atoms: _163  and  _165
REMARK   64  A    between atoms: _165  and  _166
REMARK   65  A    between atoms: _165  and  _168
REMARK   66  A    between atoms: _168  and  _169
REMARK   67  A    between atoms: _174  and  _175
REMARK   68  A    between atoms: _177  and  _179
REMARK   69  A    between atoms: _179  and  _180
REMARK   70  A    between atoms: _179  and  _182
REMARK   71  A    between atoms: _182  and  _183
REMARK   72  A    between atoms: _193  and  _195
REMARK   73  A    between atoms: _195  and  _196
REMARK   74  A    between atoms: _195  and  _198
REMARK   75  A    between atoms: _198  and  _199
REMARK   76  A    between atoms: _202  and  _204
REMARK   77  A    between atoms: _204  and  _205
REMARK   78  A    between atoms: _204  and  _207
REMARK   79  A    between atoms: _210  and  _212
REMARK   80  A    between atoms: _212  and  _213
REMARK   81  A    between atoms: _212  and  _215
REMARK   82  A    between atoms: _215  and  _216
REMARK   83  A    between atoms: _219  and  _221
REMARK   84  A    between atoms: _221  and  _222
REMARK   85  A    between atoms: _221  and  _224
REMARK   86  A    between atoms: _227  and  _228
REMARK   87  A    between atoms: _233  and  _235
REMARK   88  A    between atoms: _235  and  _236
REMARK   89  A    between atoms: _235  and  _238
REMARK   90  A    between atoms: _238  and  _239
REMARK   91  A    between atoms: _244  and  _245
REMARK   92  A    between atoms: _248  and  _249
REMARK   93  A    between atoms: _254  and  _256
REMARK   94  A    between atoms: _256  and  _257
REMARK   95  A    between atoms: _256  and  _259
REMARK   96  A    between atoms: _259  and  _260
REMARK   97  A    between atoms: _263  and  _265
REMARK   98  A    between atoms: _265  and  _266
REMARK   99  A    between atoms: _268  and  _270
REMARK  100  A    between atoms: _270  and  _271
REMARK  101  A    between atoms: _270  and  _273
REMARK  102  A    between atoms: _273  and  _274
REMARK  103  A    between atoms: _274  and  _275
REMARK  104  A    between atoms: _275  and  _276
REMARK  105  A    between atoms: _285  and  _287
REMARK  106  A    between atoms: _287  and  _288
REMARK  107  A    between atoms: _287  and  _290
REMARK  108  A    between atoms: _290  and  _291
REMARK  109  A    between atoms: _295  and  _296
REMARK  110  A    between atoms: _301  and  _303
REMARK  111  A    between atoms: _303  and  _304
REMARK  112  A    between atoms: _303  and  _306
REMARK  113  A    between atoms: _306  and  _307
REMARK  114  A    between atoms: _310  and  _312
REMARK  115  A    between atoms: _312  and  _313
REMARK  116  A    between atoms: _312  and  _315
REMARK  117  A    between atoms: _318  and  _320
REMARK  118  A    between atoms: _320  and  _321
REMARK  119  A    between atoms: _320  and  _323
REMARK  120  A    between atoms: _323  and  _324
REMARK  121  A    between atoms: _327  and  _329
REMARK  122  A    between atoms: _329  and  _330
REMARK  123  A    between atoms: _329  and  _332
REMARK  124  A    between atoms: _332  and  _333
REMARK  125  A    between atoms: _336  and  _338
REMARK  126  A    between atoms: _338  and  _339
REMARK  127  A    between atoms: _341  and  _343
REMARK  128  A    between atoms: _343  and  _344
REMARK  129  A    between atoms: _347  and  _349
REMARK  130  A    between atoms: _349  and  _350
REMARK  131  A    between atoms: _349  and  _352
REMARK  132  A    between atoms: _352  and  _353
REMARK  133  A    between atoms: _353  and  _354
REMARK  134  A    between atoms: _359  and  _361
REMARK  135  A    between atoms: _361  and  _362
REMARK  136  A    between atoms: _361  and  _364
REMARK  137  A    between atoms: _364  and  _365
REMARK  138  A    between atoms: _370  and  _372
REMARK  139  A    between atoms: _372  and  _373
REMARK  140  A    between atoms: _372  and  _375
REMARK  141  A    between atoms: _375  and  _376
REMARK  142  A    between atoms: _378  and  _380
REMARK  143  A    between atoms: _380  and  _381
REMARK  144  A    between atoms: _380  and  _383
REMARK  145  A    between atoms: _386  and  _388
REMARK  146  A    between atoms: _388  and  _389
REMARK  147  A    between atoms: _392  and  _394
REMARK  148  A    between atoms: _394  and  _395
REMARK  149  A    between atoms: _394  and  _397
REMARK  150  A    between atoms: _397  and  _398
REMARK  151  A    between atoms: _408  and  _410
REMARK  152  A    between atoms: _410  and  _411
REMARK  153  A    between atoms: _410  and  _413
REMARK  154  A    between atoms: _416  and  _418
REMARK  155  A    between atoms: _418  and  _419
REMARK  156  A    between atoms: _418  and  _421
REMARK  157  A    between atoms: _421  and  _422
REMARK  158  A    between atoms: _422  and  _423
REMARK  159  A    between atoms: _428  and  _430
REMARK  160  A    between atoms: _430  and  _431
REMARK  161  A    between atoms: _433  and  _435
REMARK  162  A    between atoms: _435  and  _436
REMARK  163  A    between atoms: _439  and  _441
REMARK  164  A    between atoms: _441  and  _442
REMARK  165  A    between atoms: _441  and  _444
REMARK  166  A    between atoms: _444  and  _445
REMARK  167  A    between atoms: _448  and  _450
REMARK  168  A    between atoms: _450  and  _451
REMARK  169  A    between atoms: _453  and  _455
REMARK  170  A    between atoms: _455  and  _456
REMARK  171  A    between atoms: _458  and  _460
REMARK  172  A    between atoms: _460  and  _461
REMARK  173  A    between atoms: _460  and  _463
REMARK  174  A    between atoms: _463  and  _464
REMARK  175  A    between atoms: _464  and  _465
REMARK  176  A    between atoms: _465  and  _466
REMARK  177  A    between atoms: _466  and  _467
REMARK  178  A    between atoms: _471  and  _473
REMARK  179  A    between atoms: _473  and  _474
REMARK  180  A    between atoms: _473  and  _476
REMARK  181  A    between atoms: _476  and  _477
REMARK  182  A    between atoms: _482  and  _483
REMARK  183  A    between atoms: _485  and  _487
REMARK  184  A    between atoms: _487  and  _488
REMARK  185  A    between atoms: _487  and  _490
REMARK  186  A    between atoms: _490  and  _491
REMARK  187  A    between atoms: _501  and  _503
REMARK  188  A    between atoms: _503  and  _504
REMARK  189  A    between atoms: _503  and  _506
REMARK  190  A    between atoms: _506  and  _507
REMARK  191  A    between atoms: _510  and  _512
REMARK  192  A    between atoms: _512  and  _513
REMARK  193  A    between atoms: _512  and  _515
REMARK  194  A    between atoms: _518  and  _520
REMARK  195  A    between atoms: _520  and  _521
REMARK  196  A    between atoms: _520  and  _523
REMARK  197  A    between atoms: _523  and  _524
REMARK  198  A    between atoms: _527  and  _529
REMARK  199  A    between atoms: _529  and  _530
REMARK  200  A    between atoms: _529  and  _532
REMARK  201  A    between atoms: _535  and  _536
REMARK  202  A    between atoms: _541  and  _543
REMARK  203  A    between atoms: _543  and  _544
REMARK  204  A    between atoms: _543  and  _546
REMARK  205  A    between atoms: _546  and  _547
REMARK  206  A    between atoms: _552  and  _553
REMARK  207  A    between atoms: _556  and  _557
REMARK  208  A    between atoms: _562  and  _564
REMARK  209  A    between atoms: _564  and  _565
REMARK  210  A    between atoms: _564  and  _567
REMARK  211  A    between atoms: _567  and  _568
REMARK  212  A    between atoms: _571  and  _573
REMARK  213  A    between atoms: _573  and  _574
REMARK  214  A    between atoms: _573  and  _576
REMARK  215  A    between atoms: _576  and  _577
REMARK  216  A    between atoms: _580  and  _582
REMARK  217  A    between atoms: _582  and  _583
REMARK  218  A    between atoms: _585  and  _587
REMARK  219  A    between atoms: _587  and  _588
REMARK  220  A    between atoms: _587  and  _590
REMARK  221  A    between atoms: _590  and  _591
REMARK  222  A    between atoms: _591  and  _592
REMARK  223  A    between atoms: _592  and  _593
REMARK  224  A    between atoms: _602  and  _604
REMARK  225  A    between atoms: _604  and  _605
REMARK  226  A    between atoms: _604  and  _607
REMARK  227  A    between atoms: _607  and  _608
REMARK                            x       y       z     vdW  Elec       q    Type
REMARK                         _______ _______ _______ _____ _____    ______ ____
ROOT
ATOM      1  O   HOH     1       2.932   0.935  13.037  0.00  0.00    +0.000 OA
ENDROOT
TORSDOF 0
REMARK  Name = ../refined-set-2016/3sm2/3sm2_pocket.pdb
REMARK  227 active torsions:
REMARK  status: ('A' for Active; 'I' for Inactive)
REMARK    1  A    between atoms: _2  and  _3
REMARK    2  A    between atoms: _8  and  _10
REMARK    3  A    between atoms: _10  and  _11
REMARK    4  A    between atoms: _10  and  _13
REMARK    5  A    between atoms: _13  and  _14
REMARK    6  A    between atoms: _17  and  _19
REMARK    7  A    between atoms: _19  and  _20
REMARK    8  A    between atoms: _19  and  _22
REMARK    9  A    between atoms: _25  and  _27
REMARK   10  A    between atoms: _27  and  _28
REMARK   11  A    between atoms: _27  and  _30
REMARK   12  A    between atoms: _30  and  _31
REMARK   13  A    between atoms: _34  and  _36
REMARK   14  A    between atoms: _36  and  _37
REMARK   15  A    between atoms: _36  and  _39
REMARK   16  A    between atoms: _39  and  _40
REMARK   17  A    between atoms: _43  and  _45
REMARK   18  A    between atoms: _45  and  _46
REMARK   19  A    between atoms: _48  and  _50
REMARK   20  A    between atoms: _50  and  _51
REMARK   21  A    between atoms: _54  and  _56
REMARK   22  A    between atoms: _56  and  _57
REMARK   23  A    between atoms: _56  and  _59
REMARK   24  A    between atoms: _59  and  _60
REMARK   25  A    between atoms: _60  and  _61
REMARK   26  A    between atoms: _66  and  _68
REMARK   27  A    between atoms: _68  and  _69
REMARK   28  A    between atoms: _68  and  _71
REMARK   29  A    between atoms: _71  and  _72
REMARK   30  A    between atoms: _77  and  _79
REMARK   31  A    between atoms: _79  and  _80
REMARK   32  A    between atoms: _79  and  _82
REMARK   33  A    between atoms: _82  and  _83
REMARK   34  A    between atoms: _85  and  _87
REMARK   35  A    between atoms: _87  and  _88
REMARK   36  A    between atoms: _87  and  _90
REMARK   37  A    between atoms: _93  and  _95
REMARK   38  A    between atoms: _95  and  _96
REMARK   39  A    between atoms: _95  and  _98
REMARK   40  A    between atoms: _98  and  _99
REMARK   41  A    between atoms: _102  and  _104
REMARK   42  A    between atoms: _104  and  _105
REMARK   43  A    between atoms: _104  and  _107
REMARK   44  A    between atoms: _107  and  _108
REMARK   45  A    between atoms: _118  and  _120
REMARK   46  A    between atoms: _120  and  _121
REMARK   47  A    between atoms: _120  and  _123
REMARK   48  A    between atoms: _126  and  _128
REMARK   49  A    between atoms: _128  and  _129
REMARK   50  A    between atoms: _128  and  _131
REMARK   51  A    between atoms: _131  and  _132
REMARK   52  A    between atoms: _132  and  _133
REMARK   53  A    between atoms: _138  and  _140
REMARK   54  A    between atoms: _140  and  _141
REMARK   55  A    between atoms: _143  and  _145
REMARK   56  A    between atoms: _145  and  _146
REMARK   57  A    between atoms: _149  and  _151
REMARK   58  A    between atoms: _151  and  _152
REMARK   59  A    between atoms: _151  and  _154
REMARK   60  A    between atoms: _154  and  _155
REMARK   61  A    between atoms: _158  and  _160
REMARK   62  A    between atoms: _160  and  _161
REMARK   63  A    between atoms: _163  and  _165
REMARK   64  A    between atoms: _165  and  _166
REMARK   65  A    between atoms: _165  and  _168
REMARK   66  A    between atoms: _168  and  _169
REMARK   67  A    between atoms: _174  and  _175
REMARK   68  A    between atoms: _177  and  _179
REMARK   69  A    between atoms: _179  and  _180
REMARK   70  A    between atoms: _179  and  _182
REMARK   71  A    between atoms: _182  and  _183
REMARK   72  A    between atoms: _193  and  _195
REMARK   73  A    between atoms: _195  and  _196
REMARK   74  A    between atoms: _195  and  _198
REMARK   75  A    between atoms: _198  and  _199
REMARK   76  A    between atoms: _202  and  _204
REMARK   77  A    between atoms: _204  and  _205
REMARK   78  A    between atoms: _204  and  _207
REMARK   79  A    between atoms: _210  and  _212
REMARK   80  A    between atoms: _212  and  _213
REMARK   81  A    between atoms: _212  and  _215
REMARK   82  A    between atoms: _215  and  _216
REMARK   83  A    between atoms: _219  and  _221
REMARK   84  A    between atoms: _221  and  _222
REMARK   85  A    between atoms: _221  and  _224
REMARK   86  A    between atoms: _227  and  _228
REMARK   87  A    between atoms: _233  and  _235
REMARK   88  A    between atoms: _235  and  _236
REMARK   89  A    between atoms: _235  and  _238
REMARK   90  A    between atoms: _238  and  _239
REMARK   91  A    between atoms: _244  and  _245
REMARK   92  A    between atoms: _248  and  _249
REMARK   93  A    between atoms: _254  and  _256
REMARK   94  A    between atoms: _256  and  _257
REMARK   95  A    between atoms: _256  and  _259
REMARK   96  A    between atoms: _259  and  _260
REMARK   97  A    between atoms: _263  and  _265
REMARK   98  A    between atoms: _265  and  _266
REMARK   99  A    between atoms: _268  and  _270
REMARK  100  A    between atoms: _270  and  _271
REMARK  101  A    between atoms: _270  and  _273
REMARK  102  A    between atoms: _273  and  _274
REMARK  103  A    between atoms: _274  and  _275
REMARK  104  A    between atoms: _275  and  _276
REMARK  105  A    between atoms: _285  and  _287
REMARK  106  A    between atoms: _287  and  _288
REMARK  107  A    between atoms: _287  and  _290
REMARK  108  A    between atoms: _290  and  _291
REMARK  109  A    between atoms: _295  and  _296
REMARK  110  A    between atoms: _301  and  _303
REMARK  111  A    between atoms: _303  and  _304
REMARK  112  A    between atoms: _303  and  _306
REMARK  113  A    between atoms: _306  and  _307
REMARK  114  A    between atoms: _310  and  _312
REMARK  115  A    between atoms: _312  and  _313
REMARK  116  A    between atoms: _312  and  _315
REMARK  117  A    between atoms: _318  and  _320
REMARK  118  A    between atoms: _320  and  _321
REMARK  119  A    between atoms: _320  and  _323
REMARK  120  A    between atoms: _323  and  _324
REMARK  121  A    between atoms: _327  and  _329
REMARK  122  A    between atoms: _329  and  _330
REMARK  123  A    between atoms: _329  and  _332
REMARK  124  A    between atoms: _332  and  _333
REMARK  125  A    between atoms: _336  and  _338
REMARK  126  A    between atoms: _338  and  _339
REMARK  127  A    between atoms: _341  and  _343
REMARK  128  A    between atoms: _343  and  _344
REMARK  129  A    between atoms: _347  and  _349
REMARK  130  A    between atoms: _349  and  _350
REMARK  131  A    between atoms: _349  and  _352
REMARK  132  A    between atoms: _352  and  _353
REMARK  133  A    between atoms: _353  and  _354
REMARK  134  A    between atoms: _359  and  _361
REMARK  135  A    between atoms: _361  and  _362
REMARK  136  A    between atoms: _361  and  _364
REMARK  137  A    between atoms: _364  and  _365
REMARK  138  A    between atoms: _370  and  _372
REMARK  139  A    between atoms: _372  and  _373
REMARK  140  A    between atoms: _372  and  _375
REMARK  141  A    between atoms: _375  and  _376
REMARK  142  A    between atoms: _378  and  _380
REMARK  143  A    between atoms: _380  and  _381
REMARK  144  A    between atoms: _380  and  _383
REMARK  145  A    between atoms: _386  and  _388
REMARK  146  A    between atoms: _388  and  _389
REMARK  147  A    between atoms: _392  and  _394
REMARK  148  A    between atoms: _394  and  _395
REMARK  149  A    between atoms: _394  and  _397
REMARK  150  A    between atoms: _397  and  _398
REMARK  151  A    between atoms: _408  and  _410
REMARK  152  A    between atoms: _410  and  _411
REMARK  153  A    between atoms: _410  and  _413
REMARK  154  A    between atoms: _416  and  _418
REMARK  155  A    between atoms: _418  and  _419
REMARK  156  A    between atoms: _418  and  _421
REMARK  157  A    between atoms: _421  and  _422
REMARK  158  A    between atoms: _422  and  _423
REMARK  159  A    between atoms: _428  and  _430
REMARK  160  A    between atoms: _430  and  _431
REMARK  161  A    between atoms: _433  and  _435
REMARK  162  A    between atoms: _435  and  _436
REMARK  163  A    between atoms: _439  and  _441
REMARK  164  A    between atoms: _441  and  _442
REMARK  165  A    between atoms: _441  and  _444
REMARK  166  A    between atoms: _444  and  _445
REMARK  167  A    between atoms: _448  and  _450
REMARK  168  A    between atoms: _450  and  _451
REMARK  169  A    between atoms: _453  and  _455
REMARK  170  A    between atoms: _455  and  _456
REMARK  171  A    between atoms: _458  and  _460
REMARK  172  A    between atoms: _460  and  _461
REMARK  173  A    between atoms: _460  and  _463
REMARK  174  A    between atoms: _463  and  _464
REMARK  175  A    between atoms: _464  and  _465
REMARK  176  A    between atoms: _465  and  _466
REMARK  177  A    between atoms: _466  and  _467
REMARK  178  A    between atoms: _471  and  _473
REMARK  179  A    between atoms: _473  and  _474
REMARK  180  A    between atoms: _473  and  _476
REMARK  181  A    between atoms: _476  and  _477
REMARK  182  A    between atoms: _482  and  _483
REMARK  183  A    between atoms: _485  and  _487
REMARK  184  A    between atoms: _487  and  _488
REMARK  185  A    between atoms: _487  and  _490
REMARK  186  A    between atoms: _490  and  _491
REMARK  187  A    between atoms: _501  and  _503
REMARK  188  A    between atoms: _503  and  _504
REMARK  189  A    between atoms: _503  and  _506
REMARK  190  A    between atoms: _506  and  _507
REMARK  191  A    between atoms: _510  and  _512
REMARK  192  A    between atoms: _512  and  _513
REMARK  193  A    between atoms: _512  and  _515
REMARK  194  A    between atoms: _518  and  _520
REMARK  195  A    between atoms: _520  and  _521
REMARK  196  A    between atoms: _520  and  _523
REMARK  197  A    between atoms: _523  and  _524
REMARK  198  A    between atoms: _527  and  _529
REMARK  199  A    between atoms: _529  and  _530
REMARK  200  A    between atoms: _529  and  _532
REMARK  201  A    between atoms: _535  and  _536
REMARK  202  A    between atoms: _541  and  _543
REMARK  203  A    between atoms: _543  and  _544
REMARK  204  A    between atoms: _543  and  _546
REMARK  205  A    between atoms: _546  and  _547
REMARK  206  A    between atoms: _552  and  _553
REMARK  207  A    between atoms: _556  and  _557
REMARK  208  A    between atoms: _562  and  _564
REMARK  209  A    between atoms: _564  and  _565
REMARK  210  A    between atoms: _564  and  _567
REMARK  211  A    between atoms: _567  and  _568
REMARK  212  A    between atoms: _571  and  _573
REMARK  213  A    between atoms: _573  and  _574
REMARK  214  A    between atoms: _573  and  _576
REMARK  215  A    between atoms: _576  and  _577
REMARK  216  A    between atoms: _580  and  _582
REMARK  217  A    between atoms: _582  and  _583
REMARK  218  A    between atoms: _585  and  _587
REMARK  219  A    between atoms: _587  and  _588
REMARK  220  A    between atoms: _587  and  _590
REMARK  221  A    between atoms: _590  and  _591
REMARK  222  A    between atoms: _591  and  _592
REMARK  223  A    between atoms: _592  and  _593
REMARK  224  A    between atoms: _602  and  _604
REMARK  225  A    between atoms: _604  and  _605
REMARK  226  A    between atoms: _604  and  _607
REMARK  227  A    between atoms: _607  and  _608
REMARK                            x       y       z     vdW  Elec       q    Type
REMARK                         _______ _______ _______ _____ _____    ______ ____
ROOT
ATOM      1  O   HOH     1      -3.710   6.357  -4.619  0.00  0.00    +0.000 OA
ENDROOT
TORSDOF 0
REMARK  Name = ../refined-set-2016/3sm2/3sm2_pocket.pdb
REMARK  227 active torsions:
REMARK  status: ('A' for Active; 'I' for Inactive)
REMARK    1  A    between atoms: _2  and  _3
REMARK    2  A    between atoms: _8  and  _10
REMARK    3  A    between atoms: _10  and  _11
REMARK    4  A    between atoms: _10  and  _13
REMARK    5  A    between atoms: _13  and  _14
REMARK    6  A    between atoms: _17  and  _19
REMARK    7  A    between atoms: _19  and  _20
REMARK    8  A    between atoms: _19  and  _22
REMARK    9  A    between atoms: _25  and  _27
REMARK   10  A    between atoms: _27  and  _28
REMARK   11  A    between atoms: _27  and  _30
REMARK   12  A    between atoms: _30  and  _31
REMARK   13  A    between atoms: _34  and  _36
REMARK   14  A    between atoms: _36  and  _37
REMARK   15  A    between atoms: _36  and  _39
REMARK   16  A    between atoms: _39  and  _40
REMARK   17  A    between atoms: _43  and  _45
REMARK   18  A    between atoms: _45  and  _46
REMARK   19  A    between atoms: _48  and  _50
REMARK   20  A    between atoms: _50  and  _51
REMARK   21  A    between atoms: _54  and  _56
REMARK   22  A    between atoms: _56  and  _57
REMARK   23  A    between atoms: _56  and  _59
REMARK   24  A    between atoms: _59  and  _60
REMARK   25  A    between atoms: _60  and  _61
REMARK   26  A    between atoms: _66  and  _68
REMARK   27  A    between atoms: _68  and  _69
REMARK   28  A    between atoms: _68  and  _71
REMARK   29  A    between atoms: _71  and  _72
REMARK   30  A    between atoms: _77  and  _79
REMARK   31  A    between atoms: _79  and  _80
REMARK   32  A    between atoms: _79  and  _82
REMARK   33  A    between atoms: _82  and  _83
REMARK   34  A    between atoms: _85  and  _87
REMARK   35  A    between atoms: _87  and  _88
REMARK   36  A    between atoms: _87  and  _90
REMARK   37  A    between atoms: _93  and  _95
REMARK   38  A    between atoms: _95  and  _96
REMARK   39  A    between atoms: _95  and  _98
REMARK   40  A    between atoms: _98  and  _99
REMARK   41  A    between atoms: _102  and  _104
REMARK   42  A    between atoms: _104  and  _105
REMARK   43  A    between atoms: _104  and  _107
REMARK   44  A    between atoms: _107  and  _108
REMARK   45  A    between atoms: _118  and  _120
REMARK   46  A    between atoms: _120  and  _121
REMARK   47  A    between atoms: _120  and  _123
REMARK   48  A    between atoms: _126  and  _128
REMARK   49  A    between atoms: _128  and  _129
REMARK   50  A    between atoms: _128  and  _131
REMARK   51  A    between atoms: _131  and  _132
REMARK   52  A    between atoms: _132  and  _133
REMARK   53  A    between atoms: _138  and  _140
REMARK   54  A    between atoms: _140  and  _141
REMARK   55  A    between atoms: _143  and  _145
REMARK   56  A    between atoms: _145  and  _146
REMARK   57  A    between atoms: _149  and  _151
REMARK   58  A    between atoms: _151  and  _152
REMARK   59  A    between atoms: _151  and  _154
REMARK   60  A    between atoms: _154  and  _155
REMARK   61  A    between atoms: _158  and  _160
REMARK   62  A    between atoms: _160  and  _161
REMARK   63  A    between atoms: _163  and  _165
REMARK   64  A    between atoms: _165  and  _166
REMARK   65  A    between atoms: _165  and  _168
REMARK   66  A    between atoms: _168  and  _169
REMARK   67  A    between atoms: _174  and  _175
REMARK   68  A    between atoms: _177  and  _179
REMARK   69  A    between atoms: _179  and  _180
REMARK   70  A    between atoms: _179  and  _182
REMARK   71  A    between atoms: _182  and  _183
REMARK   72  A    between atoms: _193  and  _195
REMARK   73  A    between atoms: _195  and  _196
REMARK   74  A    between atoms: _195  and  _198
REMARK   75  A    between atoms: _198  and  _199
REMARK   76  A    between atoms: _202  and  _204
REMARK   77  A    between atoms: _204  and  _205
REMARK   78  A    between atoms: _204  and  _207
REMARK   79  A    between atoms: _210  and  _212
REMARK   80  A    between atoms: _212  and  _213
REMARK   81  A    between atoms: _212  and  _215
REMARK   82  A    between atoms: _215  and  _216
REMARK   83  A    between atoms: _219  and  _221
REMARK   84  A    between atoms: _221  and  _222
REMARK   85  A    between atoms: _221  and  _224
REMARK   86  A    between atoms: _227  and  _228
REMARK   87  A    between atoms: _233  and  _235
REMARK   88  A    between atoms: _235  and  _236
REMARK   89  A    between atoms: _235  and  _238
REMARK   90  A    between atoms: _238  and  _239
REMARK   91  A    between atoms: _244  and  _245
REMARK   92  A    between atoms: _248  and  _249
REMARK   93  A    between atoms: _254  and  _256
REMARK   94  A    between atoms: _256  and  _257
REMARK   95  A    between atoms: _256  and  _259
REMARK   96  A    between atoms: _259  and  _260
REMARK   97  A    between atoms: _263  and  _265
REMARK   98  A    between atoms: _265  and  _266
REMARK   99  A    between atoms: _268  and  _270
REMARK  100  A    between atoms: _270  and  _271
REMARK  101  A    between atoms: _270  and  _273
REMARK  102  A    between atoms: _273  and  _274
REMARK  103  A    between atoms: _274  and  _275
REMARK  104  A    between atoms: _275  and  _276
REMARK  105  A    between atoms: _285  and  _287
REMARK  106  A    between atoms: _287  and  _288
REMARK  107  A    between atoms: _287  and  _290
REMARK  108  A    between atoms: _290  and  _291
REMARK  109  A    between atoms: _295  and  _296
REMARK  110  A    between atoms: _301  and  _303
REMARK  111  A    between atoms: _303  and  _304
REMARK  112  A    between atoms: _303  and  _306
REMARK  113  A    between atoms: _306  and  _307
REMARK  114  A    between atoms: _310  and  _312
REMARK  115  A    between atoms: _312  and  _313
REMARK  116  A    between atoms: _312  and  _315
REMARK  117  A    between atoms: _318  and  _320
REMARK  118  A    between atoms: _320  and  _321
REMARK  119  A    between atoms: _320  and  _323
REMARK  120  A    between atoms: _323  and  _324
REMARK  121  A    between atoms: _327  and  _329
REMARK  122  A    between atoms: _329  and  _330
REMARK  123  A    between atoms: _329  and  _332
REMARK  124  A    between atoms: _332  and  _333
REMARK  125  A    between atoms: _336  and  _338
REMARK  126  A    between atoms: _338  and  _339
REMARK  127  A    between atoms: _341  and  _343
REMARK  128  A    between atoms: _343  and  _344
REMARK  129  A    between atoms: _347  and  _349
REMARK  130  A    between atoms: _349  and  _350
REMARK  131  A    between atoms: _349  and  _352
REMARK  132  A    between atoms: _352  and  _353
REMARK  133  A    between atoms: _353  and  _354
REMARK  134  A    between atoms: _359  and  _361
REMARK  135  A    between atoms: _361  and  _362
REMARK  136  A    between atoms: _361  and  _364
REMARK  137  A    between atoms: _364  and  _365
REMARK  138  A    between atoms: _370  and  _372
REMARK  139  A    between atoms: _372  and  _373
REMARK  140  A    between atoms: _372  and  _375
REMARK  141  A    between atoms: _375  and  _376
REMARK  142  A    between atoms: _378  and  _380
REMARK  143  A    between atoms: _380  and  _381
REMARK  144  A    between atoms: _380  and  _383
REMARK  145  A    between atoms: _386  and  _388
REMARK  146  A    between atoms: _388  and  _389
REMARK  147  A    between atoms: _392  and  _394
REMARK  148  A    between atoms: _394  and  _395
REMARK  149  A    between atoms: _394  and  _397
REMARK  150  A    between atoms: _397  and  _398
REMARK  151  A    between atoms: _408  and  _410
REMARK  152  A    between atoms: _410  and  _411
REMARK  153  A    between atoms: _410  and  _413
REMARK  154  A    between atoms: _416  and  _418
REMARK  155  A    between atoms: _418  and  _419
REMARK  156  A    between atoms: _418  and  _421
REMARK  157  A    between atoms: _421  and  _422
REMARK  158  A    between atoms: _422  and  _423
REMARK  159  A    between atoms: _428  and  _430
REMARK  160  A    between atoms: _430  and  _431
REMARK  161  A    between atoms: _433  and  _435
REMARK  162  A    between atoms: _435  and  _436
REMARK  163  A    between atoms: _439  and  _441
REMARK  164  A    between atoms: _441  and  _442
REMARK  165  A    between atoms: _441  and  _444
REMARK  166  A    between atoms: _444  and  _445
REMARK  167  A    between atoms: _448  and  _450
REMARK  168  A    between atoms: _450  and  _451
REMARK  169  A    between atoms: _453  and  _455
REMARK  170  A    between atoms: _455  and  _456
REMARK  171  A    between atoms: _458  and  _460
REMARK  172  A    between atoms: _460  and  _461
REMARK  173  A    between atoms: _460  and  _463
REMARK  174  A    between atoms: _463  and  _464
REMARK  175  A    between atoms: _464  and  _465
REMARK  176  A    between atoms: _465  and  _466
REMARK  177  A    between atoms: _466  and  _467
REMARK  178  A    between atoms: _471  and  _473
REMARK  179  A    between atoms: _473  and  _474
REMARK  180  A    between atoms: _473  and  _476
REMARK  181  A    between atoms: _476  and  _477
REMARK  182  A    between atoms: _482  and  _483
REMARK  183  A    between atoms: _485  and  _487
REMARK  184  A    between atoms: _487  and  _488
REMARK  185  A    between atoms: _487  and  _490
REMARK  186  A    between atoms: _490  and  _491
REMARK  187  A    between atoms: _501  and  _503
REMARK  188  A    between atoms: _503  and  _504
REMARK  189  A    between atoms: _503  and  _506
REMARK  190  A    between atoms: _506  and  _507
REMARK  191  A    between atoms: _510  and  _512
REMARK  192  A    between atoms: _512  and  _513
REMARK  193  A    between atoms: _512  and  _515
REMARK  194  A    between atoms: _518  and  _520
REMARK  195  A    between atoms: _520  and  _521
REMARK  196  A    between atoms: _520  and  _523
REMARK  197  A    between atoms: _523  and  _524
REMARK  198  A    between atoms: _527  and  _529
REMARK  199  A    between atoms: _529  and  _530
REMARK  200  A    between atoms: _529  and  _532
REMARK  201  A    between atoms: _535  and  _536
REMARK  202  A    between atoms: _541  and  _543
REMARK  203  A    between atoms: _543  and  _544
REMARK  204  A    between atoms: _543  and  _546
REMARK  205  A    between atoms: _546  and  _547
REMARK  206  A    between atoms: _552  and  _553
REMARK  207  A    between atoms: _556  and  _557
REMARK  208  A    between atoms: _562  and  _564
REMARK  209  A    between atoms: _564  and  _565
REMARK  210  A    between atoms: _564  and  _567
REMARK  211  A    between atoms: _567  and  _568
REMARK  212  A    between atoms: _571  and  _573
REMARK  213  A    between atoms: _573  and  _574
REMARK  214  A    between atoms: _573  and  _576
REMARK  215  A    between atoms: _576  and  _577
REMARK  216  A    between atoms: _580  and  _582
REMARK  217  A    between atoms: _582  and  _583
REMARK  218  A    between atoms: _585  and  _587
REMARK  219  A    between atoms: _587  and  _588
REMARK  220  A    between atoms: _587  and  _590
REMARK  221  A    between atoms: _590  and  _591
REMARK  222  A    between atoms: _591  and  _592
REMARK  223  A    between atoms: _592  and  _593
REMARK  224  A    between atoms: _602  and  _604
REMARK  225  A    between atoms: _604  and  _605
REMARK  226  A    between atoms: _604  and  _607
REMARK  227  A    between atoms: _607  and  _608
REMARK                            x       y       z     vdW  Elec       q    Type
REMARK                         _______ _______ _______ _____ _____    ______ ____
ROOT
ATOM      1  O   HOH     1      -9.107   7.244   4.114  0.00  0.00    +0.000 OA
ENDROOT
TORSDOF 0
REMARK  Name = ../refined-set-2016/3sm2/3sm2_pocket.pdb
REMARK  227 active torsions:
REMARK  status: ('A' for Active; 'I' for Inactive)
REMARK    1  A    between atoms: _2  and  _3
REMARK    2  A    between atoms: _8  and  _10
REMARK    3  A    between atoms: _10  and  _11
REMARK    4  A    between atoms: _10  and  _13
REMARK    5  A    between atoms: _13  and  _14
REMARK    6  A    between atoms: _17  and  _19
REMARK    7  A    between atoms: _19  and  _20
REMARK    8  A    between atoms: _19  and  _22
REMARK    9  A    between atoms: _25  and  _27
REMARK   10  A    between atoms: _27  and  _28
REMARK   11  A    between atoms: _27  and  _30
REMARK   12  A    between atoms: _30  and  _31
REMARK   13  A    between atoms: _34  and  _36
REMARK   14  A    between atoms: _36  and  _37
REMARK   15  A    between atoms: _36  and  _39
REMARK   16  A    between atoms: _39  and  _40
REMARK   17  A    between atoms: _43  and  _45
REMARK   18  A    between atoms: _45  and  _46
REMARK   19  A    between atoms: _48  and  _50
REMARK   20  A    between atoms: _50  and  _51
REMARK   21  A    between atoms: _54  and  _56
REMARK   22  A    between atoms: _56  and  _57
REMARK   23  A    between atoms: _56  and  _59
REMARK   24  A    between atoms: _59  and  _60
REMARK   25  A    between atoms: _60  and  _61
REMARK   26  A    between atoms: _66  and  _68
REMARK   27  A    between atoms: _68  and  _69
REMARK   28  A    between atoms: _68  and  _71
REMARK   29  A    between atoms: _71  and  _72
REMARK   30  A    between atoms: _77  and  _79
REMARK   31  A    between atoms: _79  and  _80
REMARK   32  A    between atoms: _79  and  _82
REMARK   33  A    between atoms: _82  and  _83
REMARK   34  A    between atoms: _85  and  _87
REMARK   35  A    between atoms: _87  and  _88
REMARK   36  A    between atoms: _87  and  _90
REMARK   37  A    between atoms: _93  and  _95
REMARK   38  A    between atoms: _95  and  _96
REMARK   39  A    between atoms: _95  and  _98
REMARK   40  A    between atoms: _98  and  _99
REMARK   41  A    between atoms: _102  and  _104
REMARK   42  A    between atoms: _104  and  _105
REMARK   43  A    between atoms: _104  and  _107
REMARK   44  A    between atoms: _107  and  _108
REMARK   45  A    between atoms: _118  and  _120
REMARK   46  A    between atoms: _120  and  _121
REMARK   47  A    between atoms: _120  and  _123
REMARK   48  A    between atoms: _126  and  _128
REMARK   49  A    between atoms: _128  and  _129
REMARK   50  A    between atoms: _128  and  _131
REMARK   51  A    between atoms: _131  and  _132
REMARK   52  A    between atoms: _132  and  _133
REMARK   53  A    between atoms: _138  and  _140
REMARK   54  A    between atoms: _140  and  _141
REMARK   55  A    between atoms: _143  and  _145
REMARK   56  A    between atoms: _145  and  _146
REMARK   57  A    between atoms: _149  and  _151
REMARK   58  A    between atoms: _151  and  _152
REMARK   59  A    between atoms: _151  and  _154
REMARK   60  A    between atoms: _154  and  _155
REMARK   61  A    between atoms: _158  and  _160
REMARK   62  A    between atoms: _160  and  _161
REMARK   63  A    between atoms: _163  and  _165
REMARK   64  A    between atoms: _165  and  _166
REMARK   65  A    between atoms: _165  and  _168
REMARK   66  A    between atoms: _168  and  _169
REMARK   67  A    between atoms: _174  and  _175
REMARK   68  A    between atoms: _177  and  _179
REMARK   69  A    between atoms: _179  and  _180
REMARK   70  A    between atoms: _179  and  _182
REMARK   71  A    between atoms: _182  and  _183
REMARK   72  A    between atoms: _193  and  _195
REMARK   73  A    between atoms: _195  and  _196
REMARK   74  A    between atoms: _195  and  _198
REMARK   75  A    between atoms: _198  and  _199
REMARK   76  A    between atoms: _202  and  _204
REMARK   77  A    between atoms: _204  and  _205
REMARK   78  A    between atoms: _204  and  _207
REMARK   79  A    between atoms: _210  and  _212
REMARK   80  A    between atoms: _212  and  _213
REMARK   81  A    between atoms: _212  and  _215
REMARK   82  A    between atoms: _215  and  _216
REMARK   83  A    between atoms: _219  and  _221
REMARK   84  A    between atoms: _221  and  _222
REMARK   85  A    between atoms: _221  and  _224
REMARK   86  A    between atoms: _227  and  _228
REMARK   87  A    between atoms: _233  and  _235
REMARK   88  A    between atoms: _235  and  _236
REMARK   89  A    between atoms: _235  and  _238
REMARK   90  A    between atoms: _238  and  _239
REMARK   91  A    between atoms: _244  and  _245
REMARK   92  A    between atoms: _248  and  _249
REMARK   93  A    between atoms: _254  and  _256
REMARK   94  A    between atoms: _256  and  _257
REMARK   95  A    between atoms: _256  and  _259
REMARK   96  A    between atoms: _259  and  _260
REMARK   97  A    between atoms: _263  and  _265
REMARK   98  A    between atoms: _265  and  _266
REMARK   99  A    between atoms: _268  and  _270
REMARK  100  A    between atoms: _270  and  _271
REMARK  101  A    between atoms: _270  and  _273
REMARK  102  A    between atoms: _273  and  _274
REMARK  103  A    between atoms: _274  and  _275
REMARK  104  A    between atoms: _275  and  _276
REMARK  105  A    between atoms: _285  and  _287
REMARK  106  A    between atoms: _287  and  _288
REMARK  107  A    between atoms: _287  and  _290
REMARK  108  A    between atoms: _290  and  _291
REMARK  109  A    between atoms: _295  and  _296
REMARK  110  A    between atoms: _301  and  _303
REMARK  111  A    between atoms: _303  and  _304
REMARK  112  A    between atoms: _303  and  _306
REMARK  113  A    between atoms: _306  and  _307
REMARK  114  A    between atoms: _310  and  _312
REMARK  115  A    between atoms: _312  and  _313
REMARK  116  A    between atoms: _312  and  _315
REMARK  117  A    between atoms: _318  and  _320
REMARK  118  A    between atoms: _320  and  _321
REMARK  119  A    between atoms: _320  and  _323
REMARK  120  A    between atoms: _323  and  _324
REMARK  121  A    between atoms: _327  and  _329
REMARK  122  A    between atoms: _329  and  _330
REMARK  123  A    between atoms: _329  and  _332
REMARK  124  A    between atoms: _332  and  _333
REMARK  125  A    between atoms: _336  and  _338
REMARK  126  A    between atoms: _338  and  _339
REMARK  127  A    between atoms: _341  and  _343
REMARK  128  A    between atoms: _343  and  _344
REMARK  129  A    between atoms: _347  and  _349
REMARK  130  A    between atoms: _349  and  _350
REMARK  131  A    between atoms: _349  and  _352
REMARK  132  A    between atoms: _352  and  _353
REMARK  133  A    between atoms: _353  and  _354
REMARK  134  A    between atoms: _359  and  _361
REMARK  135  A    between atoms: _361  and  _362
REMARK  136  A    between atoms: _361  and  _364
REMARK  137  A    between atoms: _364  and  _365
REMARK  138  A    between atoms: _370  and  _372
REMARK  139  A    between atoms: _372  and  _373
REMARK  140  A    between atoms: _372  and  _375
REMARK  141  A    between atoms: _375  and  _376
REMARK  142  A    between atoms: _378  and  _380
REMARK  143  A    between atoms: _380  and  _381
REMARK  144  A    between atoms: _380  and  _383
REMARK  145  A    between atoms: _386  and  _388
REMARK  146  A    between atoms: _388  and  _389
REMARK  147  A    between atoms: _392  and  _394
REMARK  148  A    between atoms: _394  and  _395
REMARK  149  A    between atoms: _394  and  _397
REMARK  150  A    between atoms: _397  and  _398
REMARK  151  A    between atoms: _408  and  _410
REMARK  152  A    between atoms: _410  and  _411
REMARK  153  A    between atoms: _410  and  _413
REMARK  154  A    between atoms: _416  and  _418
REMARK  155  A    between atoms: _418  and  _419
REMARK  156  A    between atoms: _418  and  _421
REMARK  157  A    between atoms: _421  and  _422
REMARK  158  A    between atoms: _422  and  _423
REMARK  159  A    between atoms: _428  and  _430
REMARK  160  A    between atoms: _430  and  _431
REMARK  161  A    between atoms: _433  and  _435
REMARK  162  A    between atoms: _435  and  _436
REMARK  163  A    between atoms: _439  and  _441
REMARK  164  A    between atoms: _441  and  _442
REMARK  165  A    between atoms: _441  and  _444
REMARK  166  A    between atoms: _444  and  _445
REMARK  167  A    between atoms: _448  and  _450
REMARK  168  A    between atoms: _450  and  _451
REMARK  169  A    between atoms: _453  and  _455
REMARK  170  A    between atoms: _455  and  _456
REMARK  171  A    between atoms: _458  and  _460
REMARK  172  A    between atoms: _460  and  _461
REMARK  173  A    between atoms: _460  and  _463
REMARK  174  A    between atoms: _463  and  _464
REMARK  175  A    between atoms: _464  and  _465
REMARK  176  A    between atoms: _465  and  _466
REMARK  177  A    between atoms: _466  and  _467
REMARK  178  A    between atoms: _471  and  _473
REMARK  179  A    between atoms: _473  and  _474
REMARK  180  A    between atoms: _473  and  _476
REMARK  181  A    between atoms: _476  and  _477
REMARK  182  A    between atoms: _482  and  _483
REMARK  183  A    between atoms: _485  and  _487
REMARK  184  A    between atoms: _487  and  _488
REMARK  185  A    between atoms: _487  and  _490
REMARK  186  A    between atoms: _490  and  _491
REMARK  187  A    between atoms: _501  and  _503
REMARK  188  A    between atoms: _503  and  _504
REMARK  189  A    between atoms: _503  and  _506
REMARK  190  A    between atoms: _506  and  _507
REMARK  191  A    between atoms: _510  and  _512
REMARK  192  A    between atoms: _512  and  _513
REMARK  193  A    between atoms: _512  and  _515
REMARK  194  A    between atoms: _518  and  _520
REMARK  195  A    between atoms: _520  and  _521
REMARK  196  A    between atoms: _520  and  _523
REMARK  197  A    between atoms: _523  and  _524
REMARK  198  A    between atoms: _527  and  _529
REMARK  199  A    between atoms: _529  and  _530
REMARK  200  A    between atoms: _529  and  _532
REMARK  201  A    between atoms: _535  and  _536
REMARK  202  A    between atoms: _541  and  _543
REMARK  203  A    between atoms: _543  and  _544
REMARK  204  A    between atoms: _543  and  _546
REMARK  205  A    between atoms: _546  and  _547
REMARK  206  A    between atoms: _552  and  _553
REMARK  207  A    between atoms: _556  and  _557
REMARK  208  A    between atoms: _562  and  _564
REMARK  209  A    between atoms: _564  and  _565
REMARK  210  A    between atoms: _564  and  _567
REMARK  211  A    between atoms: _567  and  _568
REMARK  212  A    between atoms: _571  and  _573
REMARK  213  A    between atoms: _573  and  _574
REMARK  214  A    between atoms: _573  and  _576
REMARK  215  A    between atoms: _576  and  _577
REMARK  216  A    between atoms: _580  and  _582
REMARK  217  A    between atoms: _582  and  _583
REMARK  218  A    between atoms: _585  and  _587
REMARK  219  A    between atoms: _587  and  _588
REMARK  220  A    between atoms: _587  and  _590
REMARK  221  A    between atoms: _590  and  _591
REMARK  222  A    between atoms: _591  and  _592
REMARK  223  A    between atoms: _592  and  _593
REMARK  224  A    between atoms: _602  and  _604
REMARK  225  A    between atoms: _604  and  _605
REMARK  226  A    between atoms: _604  and  _607
REMARK  227  A    between atoms: _607  and  _608
REMARK                            x       y       z     vdW  Elec       q    Type
REMARK                         _______ _______ _______ _____ _____    ______ ____
ROOT
ATOM      1  O   HOH     1      -9.163   5.030   5.279  0.00  0.00    +0.000 OA
ENDROOT
TORSDOF 0
REMARK  Name = ../refined-set-2016/3sm2/3sm2_pocket.pdb
REMARK  227 active torsions:
REMARK  status: ('A' for Active; 'I' for Inactive)
REMARK    1  A    between atoms: _2  and  _3
REMARK    2  A    between atoms: _8  and  _10
REMARK    3  A    between atoms: _10  and  _11
REMARK    4  A    between atoms: _10  and  _13
REMARK    5  A    between atoms: _13  and  _14
REMARK    6  A    between atoms: _17  and  _19
REMARK    7  A    between atoms: _19  and  _20
REMARK    8  A    between atoms: _19  and  _22
REMARK    9  A    between atoms: _25  and  _27
REMARK   10  A    between atoms: _27  and  _28
REMARK   11  A    between atoms: _27  and  _30
REMARK   12  A    between atoms: _30  and  _31
REMARK   13  A    between atoms: _34  and  _36
REMARK   14  A    between atoms: _36  and  _37
REMARK   15  A    between atoms: _36  and  _39
REMARK   16  A    between atoms: _39  and  _40
REMARK   17  A    between atoms: _43  and  _45
REMARK   18  A    between atoms: _45  and  _46
REMARK   19  A    between atoms: _48  and  _50
REMARK   20  A    between atoms: _50  and  _51
REMARK   21  A    between atoms: _54  and  _56
REMARK   22  A    between atoms: _56  and  _57
REMARK   23  A    between atoms: _56  and  _59
REMARK   24  A    between atoms: _59  and  _60
REMARK   25  A    between atoms: _60  and  _61
REMARK   26  A    between atoms: _66  and  _68
REMARK   27  A    between atoms: _68  and  _69
REMARK   28  A    between atoms: _68  and  _71
REMARK   29  A    between atoms: _71  and  _72
REMARK   30  A    between atoms: _77  and  _79
REMARK   31  A    between atoms: _79  and  _80
REMARK   32  A    between atoms: _79  and  _82
REMARK   33  A    between atoms: _82  and  _83
REMARK   34  A    between atoms: _85  and  _87
REMARK   35  A    between atoms: _87  and  _88
REMARK   36  A    between atoms: _87  and  _90
REMARK   37  A    between atoms: _93  and  _95
REMARK   38  A    between atoms: _95  and  _96
REMARK   39  A    between atoms: _95  and  _98
REMARK   40  A    between atoms: _98  and  _99
REMARK   41  A    between atoms: _102  and  _104
REMARK   42  A    between atoms: _104  and  _105
REMARK   43  A    between atoms: _104  and  _107
REMARK   44  A    between atoms: _107  and  _108
REMARK   45  A    between atoms: _118  and  _120
REMARK   46  A    between atoms: _120  and  _121
REMARK   47  A    between atoms: _120  and  _123
REMARK   48  A    between atoms: _126  and  _128
REMARK   49  A    between atoms: _128  and  _129
REMARK   50  A    between atoms: _128  and  _131
REMARK   51  A    between atoms: _131  and  _132
REMARK   52  A    between atoms: _132  and  _133
REMARK   53  A    between atoms: _138  and  _140
REMARK   54  A    between atoms: _140  and  _141
REMARK   55  A    between atoms: _143  and  _145
REMARK   56  A    between atoms: _145  and  _146
REMARK   57  A    between atoms: _149  and  _151
REMARK   58  A    between atoms: _151  and  _152
REMARK   59  A    between atoms: _151  and  _154
REMARK   60  A    between atoms: _154  and  _155
REMARK   61  A    between atoms: _158  and  _160
REMARK   62  A    between atoms: _160  and  _161
REMARK   63  A    between atoms: _163  and  _165
REMARK   64  A    between atoms: _165  and  _166
REMARK   65  A    between atoms: _165  and  _168
REMARK   66  A    between atoms: _168  and  _169
REMARK   67  A    between atoms: _174  and  _175
REMARK   68  A    between atoms: _177  and  _179
REMARK   69  A    between atoms: _179  and  _180
REMARK   70  A    between atoms: _179  and  _182
REMARK   71  A    between atoms: _182  and  _183
REMARK   72  A    between atoms: _193  and  _195
REMARK   73  A    between atoms: _195  and  _196
REMARK   74  A    between atoms: _195  and  _198
REMARK   75  A    between atoms: _198  and  _199
REMARK   76  A    between atoms: _202  and  _204
REMARK   77  A    between atoms: _204  and  _205
REMARK   78  A    between atoms: _204  and  _207
REMARK   79  A    between atoms: _210  and  _212
REMARK   80  A    between atoms: _212  and  _213
REMARK   81  A    between atoms: _212  and  _215
REMARK   82  A    between atoms: _215  and  _216
REMARK   83  A    between atoms: _219  and  _221
REMARK   84  A    between atoms: _221  and  _222
REMARK   85  A    between atoms: _221  and  _224
REMARK   86  A    between atoms: _227  and  _228
REMARK   87  A    between atoms: _233  and  _235
REMARK   88  A    between atoms: _235  and  _236
REMARK   89  A    between atoms: _235  and  _238
REMARK   90  A    between atoms: _238  and  _239
REMARK   91  A    between atoms: _244  and  _245
REMARK   92  A    between atoms: _248  and  _249
REMARK   93  A    between atoms: _254  and  _256
REMARK   94  A    between atoms: _256  and  _257
REMARK   95  A    between atoms: _256  and  _259
REMARK   96  A    between atoms: _259  and  _260
REMARK   97  A    between atoms: _263  and  _265
REMARK   98  A    between atoms: _265  and  _266
REMARK   99  A    between atoms: _268  and  _270
REMARK  100  A    between atoms: _270  and  _271
REMARK  101  A    between atoms: _270  and  _273
REMARK  102  A    between atoms: _273  and  _274
REMARK  103  A    between atoms: _274  and  _275
REMARK  104  A    between atoms: _275  and  _276
REMARK  105  A    between atoms: _285  and  _287
REMARK  106  A    between atoms: _287  and  _288
REMARK  107  A    between atoms: _287  and  _290
REMARK  108  A    between atoms: _290  and  _291
REMARK  109  A    between atoms: _295  and  _296
REMARK  110  A    between atoms: _301  and  _303
REMARK  111  A    between atoms: _303  and  _304
REMARK  112  A    between atoms: _303  and  _306
REMARK  113  A    between atoms: _306  and  _307
REMARK  114  A    between atoms: _310  and  _312
REMARK  115  A    between atoms: _312  and  _313
REMARK  116  A    between atoms: _312  and  _315
REMARK  117  A    between atoms: _318  and  _320
REMARK  118  A    between atoms: _320  and  _321
REMARK  119  A    between atoms: _320  and  _323
REMARK  120  A    between atoms: _323  and  _324
REMARK  121  A    between atoms: _327  and  _329
REMARK  122  A    between atoms: _329  and  _330
REMARK  123  A    between atoms: _329  and  _332
REMARK  124  A    between atoms: _332  and  _333
REMARK  125  A    between atoms: _336  and  _338
REMARK  126  A    between atoms: _338  and  _339
REMARK  127  A    between atoms: _341  and  _343
REMARK  128  A    between atoms: _343  and  _344
REMARK  129  A    between atoms: _347  and  _349
REMARK  130  A    between atoms: _349  and  _350
REMARK  131  A    between atoms: _349  and  _352
REMARK  132  A    between atoms: _352  and  _353
REMARK  133  A    between atoms: _353  and  _354
REMARK  134  A    between atoms: _359  and  _361
REMARK  135  A    between atoms: _361  and  _362
REMARK  136  A    between atoms: _361  and  _364
REMARK  137  A    between atoms: _364  and  _365
REMARK  138  A    between atoms: _370  and  _372
REMARK  139  A    between atoms: _372  and  _373
REMARK  140  A    between atoms: _372  and  _375
REMARK  141  A    between atoms: _375  and  _376
REMARK  142  A    between atoms: _378  and  _380
REMARK  143  A    between atoms: _380  and  _381
REMARK  144  A    between atoms: _380  and  _383
REMARK  145  A    between atoms: _386  and  _388
REMARK  146  A    between atoms: _388  and  _389
REMARK  147  A    between atoms: _392  and  _394
REMARK  148  A    between atoms: _394  and  _395
REMARK  149  A    between atoms: _394  and  _397
REMARK  150  A    between atoms: _397  and  _398
REMARK  151  A    between atoms: _408  and  _410
REMARK  152  A    between atoms: _410  and  _411
REMARK  153  A    between atoms: _410  and  _413
REMARK  154  A    between atoms: _416  and  _418
REMARK  155  A    between atoms: _418  and  _419
REMARK  156  A    between atoms: _418  and  _421
REMARK  157  A    between atoms: _421  and  _422
REMARK  158  A    between atoms: _422  and  _423
REMARK  159  A    between atoms: _428  and  _430
REMARK  160  A    between atoms: _430  and  _431
REMARK  161  A    between atoms: _433  and  _435
REMARK  162  A    between atoms: _435  and  _436
REMARK  163  A    between atoms: _439  and  _441
REMARK  164  A    between atoms: _441  and  _442
REMARK  165  A    between atoms: _441  and  _444
REMARK  166  A    between atoms: _444  and  _445
REMARK  167  A    between atoms: _448  and  _450
REMARK  168  A    between atoms: _450  and  _451
REMARK  169  A    between atoms: _453  and  _455
REMARK  170  A    between atoms: _455  and  _456
REMARK  171  A    between atoms: _458  and  _460
REMARK  172  A    between atoms: _460  and  _461
REMARK  173  A    between atoms: _460  and  _463
REMARK  174  A    between atoms: _463  and  _464
REMARK  175  A    between atoms: _464  and  _465
REMARK  176  A    between atoms: _465  and  _466
REMARK  177  A    between atoms: _466  and  _467
REMARK  178  A    between atoms: _471  and  _473
REMARK  179  A    between atoms: _473  and  _474
REMARK  180  A    between atoms: _473  and  _476
REMARK  181  A    between atoms: _476  and  _477
REMARK  182  A    between atoms: _482  and  _483
REMARK  183  A    between atoms: _485  and  _487
REMARK  184  A    between atoms: _487  and  _488
REMARK  185  A    between atoms: _487  and  _490
REMARK  186  A    between atoms: _490  and  _491
REMARK  187  A    between atoms: _501  and  _503
REMARK  188  A    between atoms: _503  and  _504
REMARK  189  A    between atoms: _503  and  _506
REMARK  190  A    between atoms: _506  and  _507
REMARK  191  A    between atoms: _510  and  _512
REMARK  192  A    between atoms: _512  and  _513
REMARK  193  A    between atoms: _512  and  _515
REMARK  194  A    between atoms: _518  and  _520
REMARK  195  A    between atoms: _520  and  _521
REMARK  196  A    between atoms: _520  and  _523
REMARK  197  A    between atoms: _523  and  _524
REMARK  198  A    between atoms: _527  and  _529
REMARK  199  A    between atoms: _529  and  _530
REMARK  200  A    between atoms: _529  and  _532
REMARK  201  A    between atoms: _535  and  _536
REMARK  202  A    between atoms: _541  and  _543
REMARK  203  A    between atoms: _543  and  _544
REMARK  204  A    between atoms: _543  and  _546
REMARK  205  A    between atoms: _546  and  _547
REMARK  206  A    between atoms: _552  and  _553
REMARK  207  A    between atoms: _556  and  _557
REMARK  208  A    between atoms: _562  and  _564
REMARK  209  A    between atoms: _564  and  _565
REMARK  210  A    between atoms: _564  and  _567
REMARK  211  A    between atoms: _567  and  _568
REMARK  212  A    between atoms: _571  and  _573
REMARK  213  A    between atoms: _573  and  _574
REMARK  214  A    between atoms: _573  and  _576
REMARK  215  A    between atoms: _576  and  _577
REMARK  216  A    between atoms: _580  and  _582
REMARK  217  A    between atoms: _582  and  _583
REMARK  218  A    between atoms: _585  and  _587
REMARK  219  A    between atoms: _587  and  _588
REMARK  220  A    between atoms: _587  and  _590
REMARK  221  A    between atoms: _590  and  _591
REMARK  222  A    between atoms: _591  and  _592
REMARK  223  A    between atoms: _592  and  _593
REMARK  224  A    between atoms: _602  and  _604
REMARK  225  A    between atoms: _604  and  _605
REMARK  226  A    between atoms: _604  and  _607
REMARK  227  A    between atoms: _607  and  _608
REMARK                            x       y       z     vdW  Elec       q    Type
REMARK                         _______ _______ _______ _____ _____    ______ ____
ROOT
ATOM      1  O   HOH     1      -0.906   8.235  -2.875  0.00  0.00    +0.000 OA
ENDROOT
TORSDOF 0
