REMARK  Name = ../refined-set-2016/4re4/4re4_pocket.pdb
REMARK  144 active torsions:
REMARK  status: ('A' for Active; 'I' for Inactive)
REMARK    1  A    between atoms: _1  and  _3
REMARK    2  A    between atoms: _3  and  _4
REMARK    3  A    between atoms: _7  and  _9
REMARK    4  A    between atoms: _9  and  _10
REMARK    5  A    between atoms: _13  and  _15
REMARK    6  A    between atoms: _15  and  _16
REMARK    7  A    between atoms: _15  and  _18
REMARK    8  A    between atoms: _18  and  _19
REMARK    9  A    between atoms: _21  and  _23
REMARK   10  A    between atoms: _23  and  _24
REMARK   11  A    between atoms: _23  and  _26
REMARK   12  A    between atoms: _26  and  _27
REMARK   13  A    between atoms: _27  and  _28
REMARK   14  A    between atoms: _33  and  _35
REMARK   15  A    between atoms: _35  and  _36
REMARK   16  A    between atoms: _35  and  _38
REMARK   17  A    between atoms: _38  and  _39
REMARK   18  A    between atoms: _39  and  _40
REMARK   19  A    between atoms: _40  and  _41
REMARK   20  A    between atoms: _50  and  _52
REMARK   21  A    between atoms: _52  and  _53
REMARK   22  A    between atoms: _52  and  _55
REMARK   23  A    between atoms: _55  and  _56
REMARK   24  A    between atoms: _61  and  _63
REMARK   25  A    between atoms: _63  and  _64
REMARK   26  A    between atoms: _63  and  _66
REMARK   27  A    between atoms: _66  and  _67
REMARK   28  A    between atoms: _72  and  _74
REMARK   29  A    between atoms: _74  and  _75
REMARK   30  A    between atoms: _74  and  _77
REMARK   31  A    between atoms: _77  and  _78
REMARK   32  A    between atoms: _83  and  _84
REMARK   33  A    between atoms: _86  and  _88
REMARK   34  A    between atoms: _88  and  _89
REMARK   35  A    between atoms: _88  and  _91
REMARK   36  A    between atoms: _91  and  _92
REMARK   37  A    between atoms: _97  and  _99
REMARK   38  A    between atoms: _99  and  _100
REMARK   39  A    between atoms: _99  and  _102
REMARK   40  A    between atoms: _102  and  _103
REMARK   41  A    between atoms: _103  and  _104
REMARK   42  A    between atoms: _107  and  _109
REMARK   43  A    between atoms: _109  and  _110
REMARK   44  A    between atoms: _109  and  _112
REMARK   45  A    between atoms: _114  and  _116
REMARK   46  A    between atoms: _116  and  _117
REMARK   47  A    between atoms: _116  and  _119
REMARK   48  A    between atoms: _119  and  _120
REMARK   49  A    between atoms: _125  and  _127
REMARK   50  A    between atoms: _127  and  _128
REMARK   51  A    between atoms: _127  and  _130
REMARK   52  A    between atoms: _130  and  _131
REMARK   53  A    between atoms: _134  and  _136
REMARK   54  A    between atoms: _136  and  _137
REMARK   55  A    between atoms: _136  and  _139
REMARK   56  A    between atoms: _139  and  _140
REMARK   57  A    between atoms: _145  and  _147
REMARK   58  A    between atoms: _147  and  _148
REMARK   59  A    between atoms: _147  and  _150
REMARK   60  A    between atoms: _150  and  _151
REMARK   61  A    between atoms: _156  and  _158
REMARK   62  A    between atoms: _158  and  _159
REMARK   63  A    between atoms: _158  and  _161
REMARK   64  A    between atoms: _161  and  _162
REMARK   65  A    between atoms: _167  and  _168
REMARK   66  A    between atoms: _170  and  _172
REMARK   67  A    between atoms: _172  and  _173
REMARK   68  A    between atoms: _172  and  _175
REMARK   69  A    between atoms: _175  and  _176
REMARK   70  A    between atoms: _178  and  _180
REMARK   71  A    between atoms: _180  and  _181
REMARK   72  A    between atoms: _180  and  _183
REMARK   73  A    between atoms: _183  and  _184
REMARK   74  A    between atoms: _194  and  _196
REMARK   75  A    between atoms: _196  and  _197
REMARK   76  A    between atoms: _196  and  _199
REMARK   77  A    between atoms: _199  and  _200
REMARK   78  A    between atoms: _203  and  _205
REMARK   79  A    between atoms: _205  and  _206
REMARK   80  A    between atoms: _205  and  _208
REMARK   81  A    between atoms: _208  and  _209
REMARK   82  A    between atoms: _211  and  _213
REMARK   83  A    between atoms: _213  and  _214
REMARK   84  A    between atoms: _213  and  _216
REMARK   85  A    between atoms: _216  and  _217
REMARK   86  A    between atoms: _217  and  _218
REMARK   87  A    between atoms: _221  and  _223
REMARK   88  A    between atoms: _223  and  _224
REMARK   89  A    between atoms: _223  and  _226
REMARK   90  A    between atoms: _226  and  _227
REMARK   91  A    between atoms: _232  and  _234
REMARK   92  A    between atoms: _234  and  _235
REMARK   93  A    between atoms: _237  and  _239
REMARK   94  A    between atoms: _239  and  _240
REMARK   95  A    between atoms: _239  and  _242
REMARK   96  A    between atoms: _242  and  _243
REMARK   97  A    between atoms: _243  and  _244
REMARK   98  A    between atoms: _246  and  _248
REMARK   99  A    between atoms: _248  and  _249
REMARK  100  A    between atoms: _248  and  _251
REMARK  101  A    between atoms: _251  and  _252
REMARK  102  A    between atoms: _255  and  _257
REMARK  103  A    between atoms: _257  and  _258
REMARK  104  A    between atoms: _257  and  _260
REMARK  105  A    between atoms: _260  and  _261
REMARK  106  A    between atoms: _271  and  _273
REMARK  107  A    between atoms: _273  and  _274
REMARK  108  A    between atoms: _273  and  _276
REMARK  109  A    between atoms: _276  and  _277
REMARK  110  A    between atoms: _279  and  _281
REMARK  111  A    between atoms: _281  and  _282
REMARK  112  A    between atoms: _281  and  _284
REMARK  113  A    between atoms: _284  and  _285
REMARK  114  A    between atoms: _290  and  _292
REMARK  115  A    between atoms: _292  and  _293
REMARK  116  A    between atoms: _292  and  _295
REMARK  117  A    between atoms: _295  and  _296
REMARK  118  A    between atoms: _302  and  _304
REMARK  119  A    between atoms: _304  and  _305
REMARK  120  A    between atoms: _304  and  _307
REMARK  121  A    between atoms: _307  and  _308
REMARK  122  A    between atoms: _308  and  _309
REMARK  123  A    between atoms: _312  and  _314
REMARK  124  A    between atoms: _314  and  _315
REMARK  125  A    between atoms: _314  and  _317
REMARK  126  A    between atoms: _317  and  _318
REMARK  127  A    between atoms: _328  and  _330
REMARK  128  A    between atoms: _330  and  _331
REMARK  129  A    between atoms: _330  and  _333
REMARK  130  A    between atoms: _333  and  _334
REMARK  131  A    between atoms: _334  and  _335
REMARK  132  A    between atoms: _335  and  _336
REMARK  133  A    between atoms: _345  and  _347
REMARK  134  A    between atoms: _347  and  _348
REMARK  135  A    between atoms: _347  and  _350
REMARK  136  A    between atoms: _350  and  _351
REMARK  137  A    between atoms: _354  and  _356
REMARK  138  A    between atoms: _356  and  _357
REMARK  139  A    between atoms: _356  and  _359
REMARK  140  A    between atoms: _359  and  _360
REMARK  141  A    between atoms: _362  and  _364
REMARK  142  A    between atoms: _364  and  _365
REMARK  143  A    between atoms: _364  and  _367
REMARK  144  A    between atoms: _367  and  _368
REMARK                            x       y       z     vdW  Elec       q    Type
REMARK                         _______ _______ _______ _____ _____    ______ ____
ROOT
ATOM      1  CA  ALA A   2      14.473   5.719  14.037  0.00  0.00    +0.149 C 
ATOM      2  CB  ALA A   2      15.387   4.702  13.366  0.00  0.00    +0.031 C 
ENDROOT
BRANCH   1   4
ATOM      3  C   ALA A   1      15.841   7.411  15.182  0.00  0.00    +0.238 C 
ATOM      4  N   ALA A   2      15.133   6.283  15.210  0.00  0.00    -0.297 N 
ATOM      5  H   ALA A   2      15.046   5.778  16.115  0.00  0.00    +0.150 HD
ATOM      6  O   ALA A   1      16.099   8.030  14.145  0.00  0.00    -0.274 OA
BRANCH   3   7
ATOM      7  CA  ALA A   1      16.322   7.923  16.534  0.00  0.00    +0.145 C 
ATOM      8  CB  ALA A   1      15.308   8.911  17.140  0.00  0.00    +0.028 C 
BRANCH   7   9
ATOM      9  N   ALA A   1      17.609   8.559  16.394  0.00  0.00    -0.238 NA
ATOM     10  H   ALA A   1      17.734   9.295  15.670  0.00  0.00    +0.142 HD
ENDBRANCH   7   9
ENDBRANCH   3   7
ENDBRANCH   1   4
BRANCH   1  11
ATOM     11  C   ALA A   2      13.178   5.054  14.486  0.00  0.00    +0.241 C 
ATOM     12  O   ALA A   2      12.823   5.133  15.661  0.00  0.00    -0.273 OA
ATOM     13  N   SER A   3      12.472   4.401  13.562  0.00  0.00    -0.296 N 
ATOM     14  H   SER A   3      12.730   4.497  12.559  0.00  0.00    +0.150 HD
BRANCH  13  15
ATOM     15  CA  SER A   3      11.338   3.549  13.936  0.00  0.00    +0.166 C 
BRANCH  15  16
ATOM     16  C   SER A   3      11.347   2.232  13.161  0.00  0.00    +0.229 C 
ATOM     17  O   SER A   3      11.953   2.128  12.093  0.00  0.00    -0.286 OA
ENDBRANCH  15  16
BRANCH  15  18
ATOM     18  CB  SER A   3      10.001   4.262  13.729  0.00  0.00    +0.165 C 
BRANCH  18  19
ATOM     19  OG  SER A   3       9.593   4.232  12.373  0.00  0.00    -0.380 OA
ATOM     20  H   SER A   3      10.275   4.682  11.814  0.00  0.00    +0.211 HD
ENDBRANCH  18  19
ENDBRANCH  15  18
ENDBRANCH  13  15
ENDBRANCH   1  11
TORSDOF 8
REMARK  Name = ../refined-set-2016/4re4/4re4_pocket.pdb
REMARK  144 active torsions:
REMARK  status: ('A' for Active; 'I' for Inactive)
REMARK    1  A    between atoms: _1  and  _3
REMARK    2  A    between atoms: _3  and  _4
REMARK    3  A    between atoms: _7  and  _9
REMARK    4  A    between atoms: _9  and  _10
REMARK    5  A    between atoms: _13  and  _15
REMARK    6  A    between atoms: _15  and  _16
REMARK    7  A    between atoms: _15  and  _18
REMARK    8  A    between atoms: _18  and  _19
REMARK    9  A    between atoms: _21  and  _23
REMARK   10  A    between atoms: _23  and  _24
REMARK   11  A    between atoms: _23  and  _26
REMARK   12  A    between atoms: _26  and  _27
REMARK   13  A    between atoms: _27  and  _28
REMARK   14  A    between atoms: _33  and  _35
REMARK   15  A    between atoms: _35  and  _36
REMARK   16  A    between atoms: _35  and  _38
REMARK   17  A    between atoms: _38  and  _39
REMARK   18  A    between atoms: _39  and  _40
REMARK   19  A    between atoms: _40  and  _41
REMARK   20  A    between atoms: _50  and  _52
REMARK   21  A    between atoms: _52  and  _53
REMARK   22  A    between atoms: _52  and  _55
REMARK   23  A    between atoms: _55  and  _56
REMARK   24  A    between atoms: _61  and  _63
REMARK   25  A    between atoms: _63  and  _64
REMARK   26  A    between atoms: _63  and  _66
REMARK   27  A    between atoms: _66  and  _67
REMARK   28  A    between atoms: _72  and  _74
REMARK   29  A    between atoms: _74  and  _75
REMARK   30  A    between atoms: _74  and  _77
REMARK   31  A    between atoms: _77  and  _78
REMARK   32  A    between atoms: _83  and  _84
REMARK   33  A    between atoms: _86  and  _88
REMARK   34  A    between atoms: _88  and  _89
REMARK   35  A    between atoms: _88  and  _91
REMARK   36  A    between atoms: _91  and  _92
REMARK   37  A    between atoms: _97  and  _99
REMARK   38  A    between atoms: _99  and  _100
REMARK   39  A    between atoms: _99  and  _102
REMARK   40  A    between atoms: _102  and  _103
REMARK   41  A    between atoms: _103  and  _104
REMARK   42  A    between atoms: _107  and  _109
REMARK   43  A    between atoms: _109  and  _110
REMARK   44  A    between atoms: _109  and  _112
REMARK   45  A    between atoms: _114  and  _116
REMARK   46  A    between atoms: _116  and  _117
REMARK   47  A    between atoms: _116  and  _119
REMARK   48  A    between atoms: _119  and  _120
REMARK   49  A    between atoms: _125  and  _127
REMARK   50  A    between atoms: _127  and  _128
REMARK   51  A    between atoms: _127  and  _130
REMARK   52  A    between atoms: _130  and  _131
REMARK   53  A    between atoms: _134  and  _136
REMARK   54  A    between atoms: _136  and  _137
REMARK   55  A    between atoms: _136  and  _139
REMARK   56  A    between atoms: _139  and  _140
REMARK   57  A    between atoms: _145  and  _147
REMARK   58  A    between atoms: _147  and  _148
REMARK   59  A    between atoms: _147  and  _150
REMARK   60  A    between atoms: _150  and  _151
REMARK   61  A    between atoms: _156  and  _158
REMARK   62  A    between atoms: _158  and  _159
REMARK   63  A    between atoms: _158  and  _161
REMARK   64  A    between atoms: _161  and  _162
REMARK   65  A    between atoms: _167  and  _168
REMARK   66  A    between atoms: _170  and  _172
REMARK   67  A    between atoms: _172  and  _173
REMARK   68  A    between atoms: _172  and  _175
REMARK   69  A    between atoms: _175  and  _176
REMARK   70  A    between atoms: _178  and  _180
REMARK   71  A    between atoms: _180  and  _181
REMARK   72  A    between atoms: _180  and  _183
REMARK   73  A    between atoms: _183  and  _184
REMARK   74  A    between atoms: _194  and  _196
REMARK   75  A    between atoms: _196  and  _197
REMARK   76  A    between atoms: _196  and  _199
REMARK   77  A    between atoms: _199  and  _200
REMARK   78  A    between atoms: _203  and  _205
REMARK   79  A    between atoms: _205  and  _206
REMARK   80  A    between atoms: _205  and  _208
REMARK   81  A    between atoms: _208  and  _209
REMARK   82  A    between atoms: _211  and  _213
REMARK   83  A    between atoms: _213  and  _214
REMARK   84  A    between atoms: _213  and  _216
REMARK   85  A    between atoms: _216  and  _217
REMARK   86  A    between atoms: _217  and  _218
REMARK   87  A    between atoms: _221  and  _223
REMARK   88  A    between atoms: _223  and  _224
REMARK   89  A    between atoms: _223  and  _226
REMARK   90  A    between atoms: _226  and  _227
REMARK   91  A    between atoms: _232  and  _234
REMARK   92  A    between atoms: _234  and  _235
REMARK   93  A    between atoms: _237  and  _239
REMARK   94  A    between atoms: _239  and  _240
REMARK   95  A    between atoms: _239  and  _242
REMARK   96  A    between atoms: _242  and  _243
REMARK   97  A    between atoms: _243  and  _244
REMARK   98  A    between atoms: _246  and  _248
REMARK   99  A    between atoms: _248  and  _249
REMARK  100  A    between atoms: _248  and  _251
REMARK  101  A    between atoms: _251  and  _252
REMARK  102  A    between atoms: _255  and  _257
REMARK  103  A    between atoms: _257  and  _258
REMARK  104  A    between atoms: _257  and  _260
REMARK  105  A    between atoms: _260  and  _261
REMARK  106  A    between atoms: _271  and  _273
REMARK  107  A    between atoms: _273  and  _274
REMARK  108  A    between atoms: _273  and  _276
REMARK  109  A    between atoms: _276  and  _277
REMARK  110  A    between atoms: _279  and  _281
REMARK  111  A    between atoms: _281  and  _282
REMARK  112  A    between atoms: _281  and  _284
REMARK  113  A    between atoms: _284  and  _285
REMARK  114  A    between atoms: _290  and  _292
REMARK  115  A    between atoms: _292  and  _293
REMARK  116  A    between atoms: _292  and  _295
REMARK  117  A    between atoms: _295  and  _296
REMARK  118  A    between atoms: _302  and  _304
REMARK  119  A    between atoms: _304  and  _305
REMARK  120  A    between atoms: _304  and  _307
REMARK  121  A    between atoms: _307  and  _308
REMARK  122  A    between atoms: _308  and  _309
REMARK  123  A    between atoms: _312  and  _314
REMARK  124  A    between atoms: _314  and  _315
REMARK  125  A    between atoms: _314  and  _317
REMARK  126  A    between atoms: _317  and  _318
REMARK  127  A    between atoms: _328  and  _330
REMARK  128  A    between atoms: _330  and  _331
REMARK  129  A    between atoms: _330  and  _333
REMARK  130  A    between atoms: _333  and  _334
REMARK  131  A    between atoms: _334  and  _335
REMARK  132  A    between atoms: _335  and  _336
REMARK  133  A    between atoms: _345  and  _347
REMARK  134  A    between atoms: _347  and  _348
REMARK  135  A    between atoms: _347  and  _350
REMARK  136  A    between atoms: _350  and  _351
REMARK  137  A    between atoms: _354  and  _356
REMARK  138  A    between atoms: _356  and  _357
REMARK  139  A    between atoms: _356  and  _359
REMARK  140  A    between atoms: _359  and  _360
REMARK  141  A    between atoms: _362  and  _364
REMARK  142  A    between atoms: _364  and  _365
REMARK  143  A    between atoms: _364  and  _367
REMARK  144  A    between atoms: _367  and  _368
REMARK                            x       y       z     vdW  Elec       q    Type
REMARK                         _______ _______ _______ _____ _____    ______ ____
ROOT
ATOM      1  CB  GLN A   1      10.920   4.592   9.094  0.00  0.00    +0.035 C 
ENDROOT
BRANCH   1   2
ATOM      2  CA  GLN A   1      10.772   3.179   8.533  0.00  0.00    +0.134 C 
BRANCH   2   3
ATOM      3  N   GLN A   1      10.024   2.343   9.449  0.00  0.00    -0.239 NA
ATOM      4  H   GLN A   1       9.987   2.580  10.461  0.00  0.00    +0.142 HD
ENDBRANCH   2   3
BRANCH   2   5
ATOM      5  C   GLN A   1      12.114   2.579   8.129  0.00  0.00    +0.224 C 
ATOM      6  O   GLN A   1      12.609   2.863   7.039  0.00  0.00    -0.287 OA
ENDBRANCH   2   5
ENDBRANCH   1   2
BRANCH   1   7
ATOM      7  CG  GLN A   1       9.592   5.335   9.133  0.00  0.00    +0.087 C 
BRANCH   7   8
ATOM      8  CD  GLN A   1       9.716   6.671   9.812  0.00  0.00    +0.219 C 
ATOM      9  OE1 GLN A   1       9.658   6.759  11.039  0.00  0.00    -0.275 OA
ATOM     10  NE2 GLN A   1       9.883   7.728   9.018  0.00  0.00    -0.329 N 
ATOM     11 HE21 GLN A   1       9.971   8.679   9.430  0.00  0.00    +0.145 HD
ATOM     12 HE22 GLN A   1       9.926   7.602   7.987  0.00  0.00    +0.145 HD
ENDBRANCH   7   8
ENDBRANCH   1   7
TORSDOF 5
REMARK  Name = ../refined-set-2016/4re4/4re4_pocket.pdb
REMARK  144 active torsions:
REMARK  status: ('A' for Active; 'I' for Inactive)
REMARK    1  A    between atoms: _1  and  _3
REMARK    2  A    between atoms: _3  and  _4
REMARK    3  A    between atoms: _7  and  _9
REMARK    4  A    between atoms: _9  and  _10
REMARK    5  A    between atoms: _13  and  _15
REMARK    6  A    between atoms: _15  and  _16
REMARK    7  A    between atoms: _15  and  _18
REMARK    8  A    between atoms: _18  and  _19
REMARK    9  A    between atoms: _21  and  _23
REMARK   10  A    between atoms: _23  and  _24
REMARK   11  A    between atoms: _23  and  _26
REMARK   12  A    between atoms: _26  and  _27
REMARK   13  A    between atoms: _27  and  _28
REMARK   14  A    between atoms: _33  and  _35
REMARK   15  A    between atoms: _35  and  _36
REMARK   16  A    between atoms: _35  and  _38
REMARK   17  A    between atoms: _38  and  _39
REMARK   18  A    between atoms: _39  and  _40
REMARK   19  A    between atoms: _40  and  _41
REMARK   20  A    between atoms: _50  and  _52
REMARK   21  A    between atoms: _52  and  _53
REMARK   22  A    between atoms: _52  and  _55
REMARK   23  A    between atoms: _55  and  _56
REMARK   24  A    between atoms: _61  and  _63
REMARK   25  A    between atoms: _63  and  _64
REMARK   26  A    between atoms: _63  and  _66
REMARK   27  A    between atoms: _66  and  _67
REMARK   28  A    between atoms: _72  and  _74
REMARK   29  A    between atoms: _74  and  _75
REMARK   30  A    between atoms: _74  and  _77
REMARK   31  A    between atoms: _77  and  _78
REMARK   32  A    between atoms: _83  and  _84
REMARK   33  A    between atoms: _86  and  _88
REMARK   34  A    between atoms: _88  and  _89
REMARK   35  A    between atoms: _88  and  _91
REMARK   36  A    between atoms: _91  and  _92
REMARK   37  A    between atoms: _97  and  _99
REMARK   38  A    between atoms: _99  and  _100
REMARK   39  A    between atoms: _99  and  _102
REMARK   40  A    between atoms: _102  and  _103
REMARK   41  A    between atoms: _103  and  _104
REMARK   42  A    between atoms: _107  and  _109
REMARK   43  A    between atoms: _109  and  _110
REMARK   44  A    between atoms: _109  and  _112
REMARK   45  A    between atoms: _114  and  _116
REMARK   46  A    between atoms: _116  and  _117
REMARK   47  A    between atoms: _116  and  _119
REMARK   48  A    between atoms: _119  and  _120
REMARK   49  A    between atoms: _125  and  _127
REMARK   50  A    between atoms: _127  and  _128
REMARK   51  A    between atoms: _127  and  _130
REMARK   52  A    between atoms: _130  and  _131
REMARK   53  A    between atoms: _134  and  _136
REMARK   54  A    between atoms: _136  and  _137
REMARK   55  A    between atoms: _136  and  _139
REMARK   56  A    between atoms: _139  and  _140
REMARK   57  A    between atoms: _145  and  _147
REMARK   58  A    between atoms: _147  and  _148
REMARK   59  A    between atoms: _147  and  _150
REMARK   60  A    between atoms: _150  and  _151
REMARK   61  A    between atoms: _156  and  _158
REMARK   62  A    between atoms: _158  and  _159
REMARK   63  A    between atoms: _158  and  _161
REMARK   64  A    between atoms: _161  and  _162
REMARK   65  A    between atoms: _167  and  _168
REMARK   66  A    between atoms: _170  and  _172
REMARK   67  A    between atoms: _172  and  _173
REMARK   68  A    between atoms: _172  and  _175
REMARK   69  A    between atoms: _175  and  _176
REMARK   70  A    between atoms: _178  and  _180
REMARK   71  A    between atoms: _180  and  _181
REMARK   72  A    between atoms: _180  and  _183
REMARK   73  A    between atoms: _183  and  _184
REMARK   74  A    between atoms: _194  and  _196
REMARK   75  A    between atoms: _196  and  _197
REMARK   76  A    between atoms: _196  and  _199
REMARK   77  A    between atoms: _199  and  _200
REMARK   78  A    between atoms: _203  and  _205
REMARK   79  A    between atoms: _205  and  _206
REMARK   80  A    between atoms: _205  and  _208
REMARK   81  A    between atoms: _208  and  _209
REMARK   82  A    between atoms: _211  and  _213
REMARK   83  A    between atoms: _213  and  _214
REMARK   84  A    between atoms: _213  and  _216
REMARK   85  A    between atoms: _216  and  _217
REMARK   86  A    between atoms: _217  and  _218
REMARK   87  A    between atoms: _221  and  _223
REMARK   88  A    between atoms: _223  and  _224
REMARK   89  A    between atoms: _223  and  _226
REMARK   90  A    between atoms: _226  and  _227
REMARK   91  A    between atoms: _232  and  _234
REMARK   92  A    between atoms: _234  and  _235
REMARK   93  A    between atoms: _237  and  _239
REMARK   94  A    between atoms: _239  and  _240
REMARK   95  A    between atoms: _239  and  _242
REMARK   96  A    between atoms: _242  and  _243
REMARK   97  A    between atoms: _243  and  _244
REMARK   98  A    between atoms: _246  and  _248
REMARK   99  A    between atoms: _248  and  _249
REMARK  100  A    between atoms: _248  and  _251
REMARK  101  A    between atoms: _251  and  _252
REMARK  102  A    between atoms: _255  and  _257
REMARK  103  A    between atoms: _257  and  _258
REMARK  104  A    between atoms: _257  and  _260
REMARK  105  A    between atoms: _260  and  _261
REMARK  106  A    between atoms: _271  and  _273
REMARK  107  A    between atoms: _273  and  _274
REMARK  108  A    between atoms: _273  and  _276
REMARK  109  A    between atoms: _276  and  _277
REMARK  110  A    between atoms: _279  and  _281
REMARK  111  A    between atoms: _281  and  _282
REMARK  112  A    between atoms: _281  and  _284
REMARK  113  A    between atoms: _284  and  _285
REMARK  114  A    between atoms: _290  and  _292
REMARK  115  A    between atoms: _292  and  _293
REMARK  116  A    between atoms: _292  and  _295
REMARK  117  A    between atoms: _295  and  _296
REMARK  118  A    between atoms: _302  and  _304
REMARK  119  A    between atoms: _304  and  _305
REMARK  120  A    between atoms: _304  and  _307
REMARK  121  A    between atoms: _307  and  _308
REMARK  122  A    between atoms: _308  and  _309
REMARK  123  A    between atoms: _312  and  _314
REMARK  124  A    between atoms: _314  and  _315
REMARK  125  A    between atoms: _314  and  _317
REMARK  126  A    between atoms: _317  and  _318
REMARK  127  A    between atoms: _328  and  _330
REMARK  128  A    between atoms: _330  and  _331
REMARK  129  A    between atoms: _330  and  _333
REMARK  130  A    between atoms: _333  and  _334
REMARK  131  A    between atoms: _334  and  _335
REMARK  132  A    between atoms: _335  and  _336
REMARK  133  A    between atoms: _345  and  _347
REMARK  134  A    between atoms: _347  and  _348
REMARK  135  A    between atoms: _347  and  _350
REMARK  136  A    between atoms: _350  and  _351
REMARK  137  A    between atoms: _354  and  _356
REMARK  138  A    between atoms: _356  and  _357
REMARK  139  A    between atoms: _356  and  _359
REMARK  140  A    between atoms: _359  and  _360
REMARK  141  A    between atoms: _362  and  _364
REMARK  142  A    between atoms: _364  and  _365
REMARK  143  A    between atoms: _364  and  _367
REMARK  144  A    between atoms: _367  and  _368
REMARK                            x       y       z     vdW  Elec       q    Type
REMARK                         _______ _______ _______ _____ _____    ______ ____
ROOT
ATOM      1  NE  ARG A   1      12.856   7.994  19.570  0.00  0.00    -0.265 N 
ATOM      2  HE  ARG A   1      13.530   8.619  20.057  0.00  0.00    +0.259 HD
ATOM      3  CZ  ARG A   1      11.984   8.565  18.737  0.00  0.00    +0.342 C 
ATOM      4  NH2 ARG A   1      12.016   9.874  18.572  0.00  0.00    -0.292 N 
ATOM      5 HH21 ARG A   1      12.715  10.446  19.088  0.00  0.00    +0.255 HD
ATOM      6 HH22 ARG A   1      11.343  10.333  17.926  0.00  0.00    +0.255 HD
ATOM      7  NH1 ARG A   1      11.088   7.848  18.063  0.00  0.00    -0.292 N 
ATOM      8 HH11 ARG A   1      11.055   6.815  18.179  0.00  0.00    +0.255 HD
ATOM      9 HH12 ARG A   1      10.421   8.321  17.421  0.00  0.00    +0.255 HD
ENDROOT
BRANCH   1  10
ATOM     10  CD  ARG A   1      12.942   6.560  19.855  0.00  0.00    +0.174 C 
BRANCH  10  11
ATOM     11  CG  ARG A   1      13.992   6.272  20.929  0.00  0.00    +0.045 C 
BRANCH  11  12
ATOM     12  CB  ARG A   1      15.438   6.484  20.412  0.00  0.00    +0.029 C 
BRANCH  12  13
ATOM     13  CA  ARG A   1      16.141   5.170  20.072  0.00  0.00    +0.133 C 
BRANCH  13  14
ATOM     14  N   ARG A   1      17.561   5.339  19.858  0.00  0.00    -0.239 NA
ATOM     15  H   ARG A   1      17.908   6.186  19.364  0.00  0.00    +0.142 HD
ENDBRANCH  13  14
BRANCH  13  16
ATOM     16  C   ARG A   1      15.521   4.501  18.865  0.00  0.00    +0.224 C 
ATOM     17  O   ARG A   1      15.453   5.071  17.781  0.00  0.00    -0.287 OA
ENDBRANCH  13  16
ENDBRANCH  12  13
ENDBRANCH  11  12
ENDBRANCH  10  11
ENDBRANCH   1  10
TORSDOF 6
REMARK  Name = ../refined-set-2016/4re4/4re4_pocket.pdb
REMARK  144 active torsions:
REMARK  status: ('A' for Active; 'I' for Inactive)
REMARK    1  A    between atoms: _1  and  _3
REMARK    2  A    between atoms: _3  and  _4
REMARK    3  A    between atoms: _7  and  _9
REMARK    4  A    between atoms: _9  and  _10
REMARK    5  A    between atoms: _13  and  _15
REMARK    6  A    between atoms: _15  and  _16
REMARK    7  A    between atoms: _15  and  _18
REMARK    8  A    between atoms: _18  and  _19
REMARK    9  A    between atoms: _21  and  _23
REMARK   10  A    between atoms: _23  and  _24
REMARK   11  A    between atoms: _23  and  _26
REMARK   12  A    between atoms: _26  and  _27
REMARK   13  A    between atoms: _27  and  _28
REMARK   14  A    between atoms: _33  and  _35
REMARK   15  A    between atoms: _35  and  _36
REMARK   16  A    between atoms: _35  and  _38
REMARK   17  A    between atoms: _38  and  _39
REMARK   18  A    between atoms: _39  and  _40
REMARK   19  A    between atoms: _40  and  _41
REMARK   20  A    between atoms: _50  and  _52
REMARK   21  A    between atoms: _52  and  _53
REMARK   22  A    between atoms: _52  and  _55
REMARK   23  A    between atoms: _55  and  _56
REMARK   24  A    between atoms: _61  and  _63
REMARK   25  A    between atoms: _63  and  _64
REMARK   26  A    between atoms: _63  and  _66
REMARK   27  A    between atoms: _66  and  _67
REMARK   28  A    between atoms: _72  and  _74
REMARK   29  A    between atoms: _74  and  _75
REMARK   30  A    between atoms: _74  and  _77
REMARK   31  A    between atoms: _77  and  _78
REMARK   32  A    between atoms: _83  and  _84
REMARK   33  A    between atoms: _86  and  _88
REMARK   34  A    between atoms: _88  and  _89
REMARK   35  A    between atoms: _88  and  _91
REMARK   36  A    between atoms: _91  and  _92
REMARK   37  A    between atoms: _97  and  _99
REMARK   38  A    between atoms: _99  and  _100
REMARK   39  A    between atoms: _99  and  _102
REMARK   40  A    between atoms: _102  and  _103
REMARK   41  A    between atoms: _103  and  _104
REMARK   42  A    between atoms: _107  and  _109
REMARK   43  A    between atoms: _109  and  _110
REMARK   44  A    between atoms: _109  and  _112
REMARK   45  A    between atoms: _114  and  _116
REMARK   46  A    between atoms: _116  and  _117
REMARK   47  A    between atoms: _116  and  _119
REMARK   48  A    between atoms: _119  and  _120
REMARK   49  A    between atoms: _125  and  _127
REMARK   50  A    between atoms: _127  and  _128
REMARK   51  A    between atoms: _127  and  _130
REMARK   52  A    between atoms: _130  and  _131
REMARK   53  A    between atoms: _134  and  _136
REMARK   54  A    between atoms: _136  and  _137
REMARK   55  A    between atoms: _136  and  _139
REMARK   56  A    between atoms: _139  and  _140
REMARK   57  A    between atoms: _145  and  _147
REMARK   58  A    between atoms: _147  and  _148
REMARK   59  A    between atoms: _147  and  _150
REMARK   60  A    between atoms: _150  and  _151
REMARK   61  A    between atoms: _156  and  _158
REMARK   62  A    between atoms: _158  and  _159
REMARK   63  A    between atoms: _158  and  _161
REMARK   64  A    between atoms: _161  and  _162
REMARK   65  A    between atoms: _167  and  _168
REMARK   66  A    between atoms: _170  and  _172
REMARK   67  A    between atoms: _172  and  _173
REMARK   68  A    between atoms: _172  and  _175
REMARK   69  A    between atoms: _175  and  _176
REMARK   70  A    between atoms: _178  and  _180
REMARK   71  A    between atoms: _180  and  _181
REMARK   72  A    between atoms: _180  and  _183
REMARK   73  A    between atoms: _183  and  _184
REMARK   74  A    between atoms: _194  and  _196
REMARK   75  A    between atoms: _196  and  _197
REMARK   76  A    between atoms: _196  and  _199
REMARK   77  A    between atoms: _199  and  _200
REMARK   78  A    between atoms: _203  and  _205
REMARK   79  A    between atoms: _205  and  _206
REMARK   80  A    between atoms: _205  and  _208
REMARK   81  A    between atoms: _208  and  _209
REMARK   82  A    between atoms: _211  and  _213
REMARK   83  A    between atoms: _213  and  _214
REMARK   84  A    between atoms: _213  and  _216
REMARK   85  A    between atoms: _216  and  _217
REMARK   86  A    between atoms: _217  and  _218
REMARK   87  A    between atoms: _221  and  _223
REMARK   88  A    between atoms: _223  and  _224
REMARK   89  A    between atoms: _223  and  _226
REMARK   90  A    between atoms: _226  and  _227
REMARK   91  A    between atoms: _232  and  _234
REMARK   92  A    between atoms: _234  and  _235
REMARK   93  A    between atoms: _237  and  _239
REMARK   94  A    between atoms: _239  and  _240
REMARK   95  A    between atoms: _239  and  _242
REMARK   96  A    between atoms: _242  and  _243
REMARK   97  A    between atoms: _243  and  _244
REMARK   98  A    between atoms: _246  and  _248
REMARK   99  A    between atoms: _248  and  _249
REMARK  100  A    between atoms: _248  and  _251
REMARK  101  A    between atoms: _251  and  _252
REMARK  102  A    between atoms: _255  and  _257
REMARK  103  A    between atoms: _257  and  _258
REMARK  104  A    between atoms: _257  and  _260
REMARK  105  A    between atoms: _260  and  _261
REMARK  106  A    between atoms: _271  and  _273
REMARK  107  A    between atoms: _273  and  _274
REMARK  108  A    between atoms: _273  and  _276
REMARK  109  A    between atoms: _276  and  _277
REMARK  110  A    between atoms: _279  and  _281
REMARK  111  A    between atoms: _281  and  _282
REMARK  112  A    between atoms: _281  and  _284
REMARK  113  A    between atoms: _284  and  _285
REMARK  114  A    between atoms: _290  and  _292
REMARK  115  A    between atoms: _292  and  _293
REMARK  116  A    between atoms: _292  and  _295
REMARK  117  A    between atoms: _295  and  _296
REMARK  118  A    between atoms: _302  and  _304
REMARK  119  A    between atoms: _304  and  _305
REMARK  120  A    between atoms: _304  and  _307
REMARK  121  A    between atoms: _307  and  _308
REMARK  122  A    between atoms: _308  and  _309
REMARK  123  A    between atoms: _312  and  _314
REMARK  124  A    between atoms: _314  and  _315
REMARK  125  A    between atoms: _314  and  _317
REMARK  126  A    between atoms: _317  and  _318
REMARK  127  A    between atoms: _328  and  _330
REMARK  128  A    between atoms: _330  and  _331
REMARK  129  A    between atoms: _330  and  _333
REMARK  130  A    between atoms: _333  and  _334
REMARK  131  A    between atoms: _334  and  _335
REMARK  132  A    between atoms: _335  and  _336
REMARK  133  A    between atoms: _345  and  _347
REMARK  134  A    between atoms: _347  and  _348
REMARK  135  A    between atoms: _347  and  _350
REMARK  136  A    between atoms: _350  and  _351
REMARK  137  A    between atoms: _354  and  _356
REMARK  138  A    between atoms: _356  and  _357
REMARK  139  A    between atoms: _356  and  _359
REMARK  140  A    between atoms: _359  and  _360
REMARK  141  A    between atoms: _362  and  _364
REMARK  142  A    between atoms: _364  and  _365
REMARK  143  A    between atoms: _364  and  _367
REMARK  144  A    between atoms: _367  and  _368
REMARK                            x       y       z     vdW  Elec       q    Type
REMARK                         _______ _______ _______ _____ _____    ______ ____
ROOT
ATOM      1  CB  ASN A   1       9.682   4.018  20.843  0.00  0.00    +0.110 C 
ENDROOT
BRANCH   1   2
ATOM      2  CG  ASN A   1       8.293   4.570  20.569  0.00  0.00    +0.221 C 
ATOM      3  OD1 ASN A   1       7.474   4.745  21.476  0.00  0.00    -0.275 OA
ATOM      4  ND2 ASN A   1       8.024   4.854  19.306  0.00  0.00    -0.329 N 
ATOM      5 HD21 ASN A   1       7.094   5.240  19.047  0.00  0.00    +0.145 HD
ATOM      6 HD22 ASN A   1       8.743   4.691  18.572  0.00  0.00    +0.145 HD
ENDBRANCH   1   2
BRANCH   1   7
ATOM      7  CA  ASN A   1       9.687   2.907  21.902  0.00  0.00    +0.142 C 
BRANCH   7   8
ATOM      8  N   ASN A   1      11.035   2.410  22.069  0.00  0.00    -0.239 NA
ATOM      9  H   ASN A   1      11.635   2.323  21.224  0.00  0.00    +0.142 HD
ENDBRANCH   7   8
BRANCH   7  10
ATOM     10  C   ASN A   1       8.775   1.739  21.512  0.00  0.00    +0.225 C 
ATOM     11  O   ASN A   1       9.110   0.951  20.631  0.00  0.00    -0.287 OA
ENDBRANCH   7  10
ENDBRANCH   1   7
TORSDOF 4
REMARK  Name = ../refined-set-2016/4re4/4re4_pocket.pdb
REMARK  144 active torsions:
REMARK  status: ('A' for Active; 'I' for Inactive)
REMARK    1  A    between atoms: _1  and  _3
REMARK    2  A    between atoms: _3  and  _4
REMARK    3  A    between atoms: _7  and  _9
REMARK    4  A    between atoms: _9  and  _10
REMARK    5  A    between atoms: _13  and  _15
REMARK    6  A    between atoms: _15  and  _16
REMARK    7  A    between atoms: _15  and  _18
REMARK    8  A    between atoms: _18  and  _19
REMARK    9  A    between atoms: _21  and  _23
REMARK   10  A    between atoms: _23  and  _24
REMARK   11  A    between atoms: _23  and  _26
REMARK   12  A    between atoms: _26  and  _27
REMARK   13  A    between atoms: _27  and  _28
REMARK   14  A    between atoms: _33  and  _35
REMARK   15  A    between atoms: _35  and  _36
REMARK   16  A    between atoms: _35  and  _38
REMARK   17  A    between atoms: _38  and  _39
REMARK   18  A    between atoms: _39  and  _40
REMARK   19  A    between atoms: _40  and  _41
REMARK   20  A    between atoms: _50  and  _52
REMARK   21  A    between atoms: _52  and  _53
REMARK   22  A    between atoms: _52  and  _55
REMARK   23  A    between atoms: _55  and  _56
REMARK   24  A    between atoms: _61  and  _63
REMARK   25  A    between atoms: _63  and  _64
REMARK   26  A    between atoms: _63  and  _66
REMARK   27  A    between atoms: _66  and  _67
REMARK   28  A    between atoms: _72  and  _74
REMARK   29  A    between atoms: _74  and  _75
REMARK   30  A    between atoms: _74  and  _77
REMARK   31  A    between atoms: _77  and  _78
REMARK   32  A    between atoms: _83  and  _84
REMARK   33  A    between atoms: _86  and  _88
REMARK   34  A    between atoms: _88  and  _89
REMARK   35  A    between atoms: _88  and  _91
REMARK   36  A    between atoms: _91  and  _92
REMARK   37  A    between atoms: _97  and  _99
REMARK   38  A    between atoms: _99  and  _100
REMARK   39  A    between atoms: _99  and  _102
REMARK   40  A    between atoms: _102  and  _103
REMARK   41  A    between atoms: _103  and  _104
REMARK   42  A    between atoms: _107  and  _109
REMARK   43  A    between atoms: _109  and  _110
REMARK   44  A    between atoms: _109  and  _112
REMARK   45  A    between atoms: _114  and  _116
REMARK   46  A    between atoms: _116  and  _117
REMARK   47  A    between atoms: _116  and  _119
REMARK   48  A    between atoms: _119  and  _120
REMARK   49  A    between atoms: _125  and  _127
REMARK   50  A    between atoms: _127  and  _128
REMARK   51  A    between atoms: _127  and  _130
REMARK   52  A    between atoms: _130  and  _131
REMARK   53  A    between atoms: _134  and  _136
REMARK   54  A    between atoms: _136  and  _137
REMARK   55  A    between atoms: _136  and  _139
REMARK   56  A    between atoms: _139  and  _140
REMARK   57  A    between atoms: _145  and  _147
REMARK   58  A    between atoms: _147  and  _148
REMARK   59  A    between atoms: _147  and  _150
REMARK   60  A    between atoms: _150  and  _151
REMARK   61  A    between atoms: _156  and  _158
REMARK   62  A    between atoms: _158  and  _159
REMARK   63  A    between atoms: _158  and  _161
REMARK   64  A    between atoms: _161  and  _162
REMARK   65  A    between atoms: _167  and  _168
REMARK   66  A    between atoms: _170  and  _172
REMARK   67  A    between atoms: _172  and  _173
REMARK   68  A    between atoms: _172  and  _175
REMARK   69  A    between atoms: _175  and  _176
REMARK   70  A    between atoms: _178  and  _180
REMARK   71  A    between atoms: _180  and  _181
REMARK   72  A    between atoms: _180  and  _183
REMARK   73  A    between atoms: _183  and  _184
REMARK   74  A    between atoms: _194  and  _196
REMARK   75  A    between atoms: _196  and  _197
REMARK   76  A    between atoms: _196  and  _199
REMARK   77  A    between atoms: _199  and  _200
REMARK   78  A    between atoms: _203  and  _205
REMARK   79  A    between atoms: _205  and  _206
REMARK   80  A    between atoms: _205  and  _208
REMARK   81  A    between atoms: _208  and  _209
REMARK   82  A    between atoms: _211  and  _213
REMARK   83  A    between atoms: _213  and  _214
REMARK   84  A    between atoms: _213  and  _216
REMARK   85  A    between atoms: _216  and  _217
REMARK   86  A    between atoms: _217  and  _218
REMARK   87  A    between atoms: _221  and  _223
REMARK   88  A    between atoms: _223  and  _224
REMARK   89  A    between atoms: _223  and  _226
REMARK   90  A    between atoms: _226  and  _227
REMARK   91  A    between atoms: _232  and  _234
REMARK   92  A    between atoms: _234  and  _235
REMARK   93  A    between atoms: _237  and  _239
REMARK   94  A    between atoms: _239  and  _240
REMARK   95  A    between atoms: _239  and  _242
REMARK   96  A    between atoms: _242  and  _243
REMARK   97  A    between atoms: _243  and  _244
REMARK   98  A    between atoms: _246  and  _248
REMARK   99  A    between atoms: _248  and  _249
REMARK  100  A    between atoms: _248  and  _251
REMARK  101  A    between atoms: _251  and  _252
REMARK  102  A    between atoms: _255  and  _257
REMARK  103  A    between atoms: _257  and  _258
REMARK  104  A    between atoms: _257  and  _260
REMARK  105  A    between atoms: _260  and  _261
REMARK  106  A    between atoms: _271  and  _273
REMARK  107  A    between atoms: _273  and  _274
REMARK  108  A    between atoms: _273  and  _276
REMARK  109  A    between atoms: _276  and  _277
REMARK  110  A    between atoms: _279  and  _281
REMARK  111  A    between atoms: _281  and  _282
REMARK  112  A    between atoms: _281  and  _284
REMARK  113  A    between atoms: _284  and  _285
REMARK  114  A    between atoms: _290  and  _292
REMARK  115  A    between atoms: _292  and  _293
REMARK  116  A    between atoms: _292  and  _295
REMARK  117  A    between atoms: _295  and  _296
REMARK  118  A    between atoms: _302  and  _304
REMARK  119  A    between atoms: _304  and  _305
REMARK  120  A    between atoms: _304  and  _307
REMARK  121  A    between atoms: _307  and  _308
REMARK  122  A    between atoms: _308  and  _309
REMARK  123  A    between atoms: _312  and  _314
REMARK  124  A    between atoms: _314  and  _315
REMARK  125  A    between atoms: _314  and  _317
REMARK  126  A    between atoms: _317  and  _318
REMARK  127  A    between atoms: _328  and  _330
REMARK  128  A    between atoms: _330  and  _331
REMARK  129  A    between atoms: _330  and  _333
REMARK  130  A    between atoms: _333  and  _334
REMARK  131  A    between atoms: _334  and  _335
REMARK  132  A    between atoms: _335  and  _336
REMARK  133  A    between atoms: _345  and  _347
REMARK  134  A    between atoms: _347  and  _348
REMARK  135  A    between atoms: _347  and  _350
REMARK  136  A    between atoms: _350  and  _351
REMARK  137  A    between atoms: _354  and  _356
REMARK  138  A    between atoms: _356  and  _357
REMARK  139  A    between atoms: _356  and  _359
REMARK  140  A    between atoms: _359  and  _360
REMARK  141  A    between atoms: _362  and  _364
REMARK  142  A    between atoms: _364  and  _365
REMARK  143  A    between atoms: _364  and  _367
REMARK  144  A    between atoms: _367  and  _368
REMARK                            x       y       z     vdW  Elec       q    Type
REMARK                         _______ _______ _______ _____ _____    ______ ____
ROOT
ATOM      1  C   HIS A   1       4.584   4.047  14.946  0.00  0.00    +0.239 C 
ATOM      2  N   TYR A   2       3.297   4.368  15.051  0.00  0.00    -0.298 N 
ATOM      3  H   TYR A   2       2.954   4.640  15.994  0.00  0.00    +0.150 HD
ATOM      4  O   HIS A   1       5.090   3.601  13.926  0.00  0.00    -0.274 OA
ENDROOT
BRANCH   1   5
ATOM      5  CA  HIS A   1       5.406   4.233  16.216  0.00  0.00    +0.151 C 
BRANCH   5   6
ATOM      6  N   HIS A   1       5.112   3.159  17.158  0.00  0.00    -0.238 NA
ATOM      7  H   HIS A   1       5.031   2.182  16.812  0.00  0.00    +0.142 HD
ENDBRANCH   5   6
BRANCH   5   8
ATOM      8  CB  HIS A   1       6.908   4.274  15.926  0.00  0.00    +0.074 C 
BRANCH   8   9
ATOM      9  CG  HIS A   1       7.377   5.551  15.298  0.00  0.00    +0.082 A 
ATOM     10  ND1 HIS A   1       8.541   6.187  15.690  0.00  0.00    -0.227 NA
ATOM     11  CE1 HIS A   1       8.723   7.261  14.937  0.00  0.00    +0.199 A 
ATOM     12  NE2 HIS A   1       7.707   7.362  14.093  0.00  0.00    -0.221 NA
ATOM     13  CD2 HIS A   1       6.860   6.297  14.286  0.00  0.00    +0.115 A 
ENDBRANCH   8   9
ENDBRANCH   5   8
ENDBRANCH   1   5
BRANCH   2  14
ATOM     14  CA  TYR A   2       2.304   4.374  13.946  0.00  0.00    +0.141 C 
BRANCH  14  15
ATOM     15  C   TYR A   2       1.872   3.019  13.394  0.00  0.00    +0.227 C 
ATOM     16  O   TYR A   2       1.154   2.972  12.402  0.00  0.00    -0.286 OA
ENDBRANCH  14  15
BRANCH  14  17
ATOM     17  CB  TYR A   2       2.726   5.232  12.745  0.00  0.00    +0.054 C 
BRANCH  17  18
ATOM     18  CG  TYR A   2       3.159   6.656  13.007  0.00  0.00    -0.020 A 
ATOM     19  CD2 TYR A   2       3.020   7.257  14.267  0.00  0.00    -0.001 A 
ATOM     20  CE2 TYR A   2       3.431   8.550  14.487  0.00  0.00    +0.036 A 
ATOM     21  CZ  TYR A   2       3.988   9.264  13.432  0.00  0.00    +0.134 A 
ATOM     22  CE1 TYR A   2       4.140   8.688  12.182  0.00  0.00    +0.036 A 
ATOM     23  CD1 TYR A   2       3.729   7.397  11.981  0.00  0.00    -0.001 A 
BRANCH  21  24
ATOM     24  OH  TYR A   2       4.419  10.551  13.612  0.00  0.00    -0.506 OA
ATOM     25  HH  TYR A   2       4.247  10.828  14.547  0.00  0.00    +0.292 HD
ENDBRANCH  21  24
ENDBRANCH  17  18
ENDBRANCH  14  17
ENDBRANCH   2  14
TORSDOF 9
REMARK  Name = ../refined-set-2016/4re4/4re4_pocket.pdb
REMARK  144 active torsions:
REMARK  status: ('A' for Active; 'I' for Inactive)
REMARK    1  A    between atoms: _1  and  _3
REMARK    2  A    between atoms: _3  and  _4
REMARK    3  A    between atoms: _7  and  _9
REMARK    4  A    between atoms: _9  and  _10
REMARK    5  A    between atoms: _13  and  _15
REMARK    6  A    between atoms: _15  and  _16
REMARK    7  A    between atoms: _15  and  _18
REMARK    8  A    between atoms: _18  and  _19
REMARK    9  A    between atoms: _21  and  _23
REMARK   10  A    between atoms: _23  and  _24
REMARK   11  A    between atoms: _23  and  _26
REMARK   12  A    between atoms: _26  and  _27
REMARK   13  A    between atoms: _27  and  _28
REMARK   14  A    between atoms: _33  and  _35
REMARK   15  A    between atoms: _35  and  _36
REMARK   16  A    between atoms: _35  and  _38
REMARK   17  A    between atoms: _38  and  _39
REMARK   18  A    between atoms: _39  and  _40
REMARK   19  A    between atoms: _40  and  _41
REMARK   20  A    between atoms: _50  and  _52
REMARK   21  A    between atoms: _52  and  _53
REMARK   22  A    between atoms: _52  and  _55
REMARK   23  A    between atoms: _55  and  _56
REMARK   24  A    between atoms: _61  and  _63
REMARK   25  A    between atoms: _63  and  _64
REMARK   26  A    between atoms: _63  and  _66
REMARK   27  A    between atoms: _66  and  _67
REMARK   28  A    between atoms: _72  and  _74
REMARK   29  A    between atoms: _74  and  _75
REMARK   30  A    between atoms: _74  and  _77
REMARK   31  A    between atoms: _77  and  _78
REMARK   32  A    between atoms: _83  and  _84
REMARK   33  A    between atoms: _86  and  _88
REMARK   34  A    between atoms: _88  and  _89
REMARK   35  A    between atoms: _88  and  _91
REMARK   36  A    between atoms: _91  and  _92
REMARK   37  A    between atoms: _97  and  _99
REMARK   38  A    between atoms: _99  and  _100
REMARK   39  A    between atoms: _99  and  _102
REMARK   40  A    between atoms: _102  and  _103
REMARK   41  A    between atoms: _103  and  _104
REMARK   42  A    between atoms: _107  and  _109
REMARK   43  A    between atoms: _109  and  _110
REMARK   44  A    between atoms: _109  and  _112
REMARK   45  A    between atoms: _114  and  _116
REMARK   46  A    between atoms: _116  and  _117
REMARK   47  A    between atoms: _116  and  _119
REMARK   48  A    between atoms: _119  and  _120
REMARK   49  A    between atoms: _125  and  _127
REMARK   50  A    between atoms: _127  and  _128
REMARK   51  A    between atoms: _127  and  _130
REMARK   52  A    between atoms: _130  and  _131
REMARK   53  A    between atoms: _134  and  _136
REMARK   54  A    between atoms: _136  and  _137
REMARK   55  A    between atoms: _136  and  _139
REMARK   56  A    between atoms: _139  and  _140
REMARK   57  A    between atoms: _145  and  _147
REMARK   58  A    between atoms: _147  and  _148
REMARK   59  A    between atoms: _147  and  _150
REMARK   60  A    between atoms: _150  and  _151
REMARK   61  A    between atoms: _156  and  _158
REMARK   62  A    between atoms: _158  and  _159
REMARK   63  A    between atoms: _158  and  _161
REMARK   64  A    between atoms: _161  and  _162
REMARK   65  A    between atoms: _167  and  _168
REMARK   66  A    between atoms: _170  and  _172
REMARK   67  A    between atoms: _172  and  _173
REMARK   68  A    between atoms: _172  and  _175
REMARK   69  A    between atoms: _175  and  _176
REMARK   70  A    between atoms: _178  and  _180
REMARK   71  A    between atoms: _180  and  _181
REMARK   72  A    between atoms: _180  and  _183
REMARK   73  A    between atoms: _183  and  _184
REMARK   74  A    between atoms: _194  and  _196
REMARK   75  A    between atoms: _196  and  _197
REMARK   76  A    between atoms: _196  and  _199
REMARK   77  A    between atoms: _199  and  _200
REMARK   78  A    between atoms: _203  and  _205
REMARK   79  A    between atoms: _205  and  _206
REMARK   80  A    between atoms: _205  and  _208
REMARK   81  A    between atoms: _208  and  _209
REMARK   82  A    between atoms: _211  and  _213
REMARK   83  A    between atoms: _213  and  _214
REMARK   84  A    between atoms: _213  and  _216
REMARK   85  A    between atoms: _216  and  _217
REMARK   86  A    between atoms: _217  and  _218
REMARK   87  A    between atoms: _221  and  _223
REMARK   88  A    between atoms: _223  and  _224
REMARK   89  A    between atoms: _223  and  _226
REMARK   90  A    between atoms: _226  and  _227
REMARK   91  A    between atoms: _232  and  _234
REMARK   92  A    between atoms: _234  and  _235
REMARK   93  A    between atoms: _237  and  _239
REMARK   94  A    between atoms: _239  and  _240
REMARK   95  A    between atoms: _239  and  _242
REMARK   96  A    between atoms: _242  and  _243
REMARK   97  A    between atoms: _243  and  _244
REMARK   98  A    between atoms: _246  and  _248
REMARK   99  A    between atoms: _248  and  _249
REMARK  100  A    between atoms: _248  and  _251
REMARK  101  A    between atoms: _251  and  _252
REMARK  102  A    between atoms: _255  and  _257
REMARK  103  A    between atoms: _257  and  _258
REMARK  104  A    between atoms: _257  and  _260
REMARK  105  A    between atoms: _260  and  _261
REMARK  106  A    between atoms: _271  and  _273
REMARK  107  A    between atoms: _273  and  _274
REMARK  108  A    between atoms: _273  and  _276
REMARK  109  A    between atoms: _276  and  _277
REMARK  110  A    between atoms: _279  and  _281
REMARK  111  A    between atoms: _281  and  _282
REMARK  112  A    between atoms: _281  and  _284
REMARK  113  A    between atoms: _284  and  _285
REMARK  114  A    between atoms: _290  and  _292
REMARK  115  A    between atoms: _292  and  _293
REMARK  116  A    between atoms: _292  and  _295
REMARK  117  A    between atoms: _295  and  _296
REMARK  118  A    between atoms: _302  and  _304
REMARK  119  A    between atoms: _304  and  _305
REMARK  120  A    between atoms: _304  and  _307
REMARK  121  A    between atoms: _307  and  _308
REMARK  122  A    between atoms: _308  and  _309
REMARK  123  A    between atoms: _312  and  _314
REMARK  124  A    between atoms: _314  and  _315
REMARK  125  A    between atoms: _314  and  _317
REMARK  126  A    between atoms: _317  and  _318
REMARK  127  A    between atoms: _328  and  _330
REMARK  128  A    between atoms: _330  and  _331
REMARK  129  A    between atoms: _330  and  _333
REMARK  130  A    between atoms: _333  and  _334
REMARK  131  A    between atoms: _334  and  _335
REMARK  132  A    between atoms: _335  and  _336
REMARK  133  A    between atoms: _345  and  _347
REMARK  134  A    between atoms: _347  and  _348
REMARK  135  A    between atoms: _347  and  _350
REMARK  136  A    between atoms: _350  and  _351
REMARK  137  A    between atoms: _354  and  _356
REMARK  138  A    between atoms: _356  and  _357
REMARK  139  A    between atoms: _356  and  _359
REMARK  140  A    between atoms: _359  and  _360
REMARK  141  A    between atoms: _362  and  _364
REMARK  142  A    between atoms: _364  and  _365
REMARK  143  A    between atoms: _364  and  _367
REMARK  144  A    between atoms: _367  and  _368
REMARK                            x       y       z     vdW  Elec       q    Type
REMARK                         _______ _______ _______ _____ _____    ______ ____
ROOT
ATOM      1  C   ASN A   1       4.763   9.201  18.952  0.00  0.00    +0.239 C 
ATOM      2  N   GLU A   2       4.673  10.447  19.413  0.00  0.00    -0.298 N 
ATOM      3  H   GLU A   2       5.275  10.731  20.213  0.00  0.00    +0.150 HD
ATOM      4  O   ASN A   1       3.996   8.737  18.114  0.00  0.00    -0.274 OA
ENDROOT
BRANCH   1   5
ATOM      5  CA  ASN A   1       5.869   8.338  19.550  0.00  0.00    +0.154 C 
BRANCH   5   6
ATOM      6  N   ASN A   1       5.278   7.226  20.265  0.00  0.00    -0.238 NA
ATOM      7  H   ASN A   1       4.963   6.388  19.736  0.00  0.00    +0.142 HD
ENDBRANCH   5   6
BRANCH   5   8
ATOM      8  CB  ASN A   1       6.798   7.852  18.446  0.00  0.00    +0.111 C 
BRANCH   8   9
ATOM      9  CG  ASN A   1       7.382   8.993  17.658  0.00  0.00    +0.221 C 
ATOM     10  OD1 ASN A   1       8.305   9.658  18.115  0.00  0.00    -0.275 OA
ATOM     11  ND2 ASN A   1       6.808   9.260  16.475  0.00  0.00    -0.329 N 
ATOM     12 HD21 ASN A   1       6.027   8.666  16.130  0.00  0.00    +0.145 HD
ATOM     13 HD22 ASN A   1       7.144  10.061  15.903  0.00  0.00    +0.145 HD
ENDBRANCH   8   9
ENDBRANCH   5   8
ENDBRANCH   1   5
BRANCH   2  14
ATOM     14  CA  GLU A   2       3.760  11.429  18.836  0.00  0.00    +0.137 C 
BRANCH  14  15
ATOM     15  C   GLU A   2       2.302  10.946  18.746  0.00  0.00    +0.227 C 
ATOM     16  O   GLU A   2       1.735  10.862  17.658  0.00  0.00    -0.286 OA
ENDBRANCH  14  15
BRANCH  14  17
ATOM     17  CB  GLU A   2       4.287  11.912  17.474  0.00  0.00    +0.039 C 
BRANCH  17  18
ATOM     18  CG  GLU A   2       5.741  12.422  17.550  0.00  0.00    +0.116 C 
BRANCH  18  19
ATOM     19  CD  GLU A   2       6.350  12.743  16.183  0.00  0.00    +0.365 C 
ATOM     20  OE2 GLU A   2       7.367  13.487  16.118  0.00  0.00    -0.246 OA
ATOM     21  OE1 GLU A   2       5.812  12.243  15.174  0.00  0.00    -0.246 OA
ENDBRANCH  18  19
ENDBRANCH  17  18
ENDBRANCH  14  17
ENDBRANCH   2  14
TORSDOF 9
REMARK  Name = ../refined-set-2016/4re4/4re4_pocket.pdb
REMARK  144 active torsions:
REMARK  status: ('A' for Active; 'I' for Inactive)
REMARK    1  A    between atoms: _1  and  _3
REMARK    2  A    between atoms: _3  and  _4
REMARK    3  A    between atoms: _7  and  _9
REMARK    4  A    between atoms: _9  and  _10
REMARK    5  A    between atoms: _13  and  _15
REMARK    6  A    between atoms: _15  and  _16
REMARK    7  A    between atoms: _15  and  _18
REMARK    8  A    between atoms: _18  and  _19
REMARK    9  A    between atoms: _21  and  _23
REMARK   10  A    between atoms: _23  and  _24
REMARK   11  A    between atoms: _23  and  _26
REMARK   12  A    between atoms: _26  and  _27
REMARK   13  A    between atoms: _27  and  _28
REMARK   14  A    between atoms: _33  and  _35
REMARK   15  A    between atoms: _35  and  _36
REMARK   16  A    between atoms: _35  and  _38
REMARK   17  A    between atoms: _38  and  _39
REMARK   18  A    between atoms: _39  and  _40
REMARK   19  A    between atoms: _40  and  _41
REMARK   20  A    between atoms: _50  and  _52
REMARK   21  A    between atoms: _52  and  _53
REMARK   22  A    between atoms: _52  and  _55
REMARK   23  A    between atoms: _55  and  _56
REMARK   24  A    between atoms: _61  and  _63
REMARK   25  A    between atoms: _63  and  _64
REMARK   26  A    between atoms: _63  and  _66
REMARK   27  A    between atoms: _66  and  _67
REMARK   28  A    between atoms: _72  and  _74
REMARK   29  A    between atoms: _74  and  _75
REMARK   30  A    between atoms: _74  and  _77
REMARK   31  A    between atoms: _77  and  _78
REMARK   32  A    between atoms: _83  and  _84
REMARK   33  A    between atoms: _86  and  _88
REMARK   34  A    between atoms: _88  and  _89
REMARK   35  A    between atoms: _88  and  _91
REMARK   36  A    between atoms: _91  and  _92
REMARK   37  A    between atoms: _97  and  _99
REMARK   38  A    between atoms: _99  and  _100
REMARK   39  A    between atoms: _99  and  _102
REMARK   40  A    between atoms: _102  and  _103
REMARK   41  A    between atoms: _103  and  _104
REMARK   42  A    between atoms: _107  and  _109
REMARK   43  A    between atoms: _109  and  _110
REMARK   44  A    between atoms: _109  and  _112
REMARK   45  A    between atoms: _114  and  _116
REMARK   46  A    between atoms: _116  and  _117
REMARK   47  A    between atoms: _116  and  _119
REMARK   48  A    between atoms: _119  and  _120
REMARK   49  A    between atoms: _125  and  _127
REMARK   50  A    between atoms: _127  and  _128
REMARK   51  A    between atoms: _127  and  _130
REMARK   52  A    between atoms: _130  and  _131
REMARK   53  A    between atoms: _134  and  _136
REMARK   54  A    between atoms: _136  and  _137
REMARK   55  A    between atoms: _136  and  _139
REMARK   56  A    between atoms: _139  and  _140
REMARK   57  A    between atoms: _145  and  _147
REMARK   58  A    between atoms: _147  and  _148
REMARK   59  A    between atoms: _147  and  _150
REMARK   60  A    between atoms: _150  and  _151
REMARK   61  A    between atoms: _156  and  _158
REMARK   62  A    between atoms: _158  and  _159
REMARK   63  A    between atoms: _158  and  _161
REMARK   64  A    between atoms: _161  and  _162
REMARK   65  A    between atoms: _167  and  _168
REMARK   66  A    between atoms: _170  and  _172
REMARK   67  A    between atoms: _172  and  _173
REMARK   68  A    between atoms: _172  and  _175
REMARK   69  A    between atoms: _175  and  _176
REMARK   70  A    between atoms: _178  and  _180
REMARK   71  A    between atoms: _180  and  _181
REMARK   72  A    between atoms: _180  and  _183
REMARK   73  A    between atoms: _183  and  _184
REMARK   74  A    between atoms: _194  and  _196
REMARK   75  A    between atoms: _196  and  _197
REMARK   76  A    between atoms: _196  and  _199
REMARK   77  A    between atoms: _199  and  _200
REMARK   78  A    between atoms: _203  and  _205
REMARK   79  A    between atoms: _205  and  _206
REMARK   80  A    between atoms: _205  and  _208
REMARK   81  A    between atoms: _208  and  _209
REMARK   82  A    between atoms: _211  and  _213
REMARK   83  A    between atoms: _213  and  _214
REMARK   84  A    between atoms: _213  and  _216
REMARK   85  A    between atoms: _216  and  _217
REMARK   86  A    between atoms: _217  and  _218
REMARK   87  A    between atoms: _221  and  _223
REMARK   88  A    between atoms: _223  and  _224
REMARK   89  A    between atoms: _223  and  _226
REMARK   90  A    between atoms: _226  and  _227
REMARK   91  A    between atoms: _232  and  _234
REMARK   92  A    between atoms: _234  and  _235
REMARK   93  A    between atoms: _237  and  _239
REMARK   94  A    between atoms: _239  and  _240
REMARK   95  A    between atoms: _239  and  _242
REMARK   96  A    between atoms: _242  and  _243
REMARK   97  A    between atoms: _243  and  _244
REMARK   98  A    between atoms: _246  and  _248
REMARK   99  A    between atoms: _248  and  _249
REMARK  100  A    between atoms: _248  and  _251
REMARK  101  A    between atoms: _251  and  _252
REMARK  102  A    between atoms: _255  and  _257
REMARK  103  A    between atoms: _257  and  _258
REMARK  104  A    between atoms: _257  and  _260
REMARK  105  A    between atoms: _260  and  _261
REMARK  106  A    between atoms: _271  and  _273
REMARK  107  A    between atoms: _273  and  _274
REMARK  108  A    between atoms: _273  and  _276
REMARK  109  A    between atoms: _276  and  _277
REMARK  110  A    between atoms: _279  and  _281
REMARK  111  A    between atoms: _281  and  _282
REMARK  112  A    between atoms: _281  and  _284
REMARK  113  A    between atoms: _284  and  _285
REMARK  114  A    between atoms: _290  and  _292
REMARK  115  A    between atoms: _292  and  _293
REMARK  116  A    between atoms: _292  and  _295
REMARK  117  A    between atoms: _295  and  _296
REMARK  118  A    between atoms: _302  and  _304
REMARK  119  A    between atoms: _304  and  _305
REMARK  120  A    between atoms: _304  and  _307
REMARK  121  A    between atoms: _307  and  _308
REMARK  122  A    between atoms: _308  and  _309
REMARK  123  A    between atoms: _312  and  _314
REMARK  124  A    between atoms: _314  and  _315
REMARK  125  A    between atoms: _314  and  _317
REMARK  126  A    between atoms: _317  and  _318
REMARK  127  A    between atoms: _328  and  _330
REMARK  128  A    between atoms: _330  and  _331
REMARK  129  A    between atoms: _330  and  _333
REMARK  130  A    between atoms: _333  and  _334
REMARK  131  A    between atoms: _334  and  _335
REMARK  132  A    between atoms: _335  and  _336
REMARK  133  A    between atoms: _345  and  _347
REMARK  134  A    between atoms: _347  and  _348
REMARK  135  A    between atoms: _347  and  _350
REMARK  136  A    between atoms: _350  and  _351
REMARK  137  A    between atoms: _354  and  _356
REMARK  138  A    between atoms: _356  and  _357
REMARK  139  A    between atoms: _356  and  _359
REMARK  140  A    between atoms: _359  and  _360
REMARK  141  A    between atoms: _362  and  _364
REMARK  142  A    between atoms: _364  and  _365
REMARK  143  A    between atoms: _364  and  _367
REMARK  144  A    between atoms: _367  and  _368
REMARK                            x       y       z     vdW  Elec       q    Type
REMARK                         _______ _______ _______ _____ _____    ______ ____
ROOT
ATOM      1  CA  CYS A   1      -0.023  12.613  15.088  0.00  0.00    +0.145 C 
ENDROOT
BRANCH   1   2
ATOM      2  N   CYS A   1      -0.014  12.913  16.513  0.00  0.00    -0.238 NA
ATOM      3  H   CYS A   1       0.846  12.726  17.067  0.00  0.00    +0.142 HD
ENDBRANCH   1   2
BRANCH   1   4
ATOM      4  C   CYS A   1      -0.824  11.366  14.771  0.00  0.00    +0.225 C 
ATOM      5  O   CYS A   1      -1.539  11.313  13.761  0.00  0.00    -0.287 OA
ENDBRANCH   1   4
BRANCH   1   6
ATOM      6  CB  CYS A   1       1.410  12.513  14.564  0.00  0.00    +0.094 C 
ATOM      7  SG  CYS A   1       2.228  14.111  14.755  0.00  0.00    -0.080 S 
ENDBRANCH   1   6
TORSDOF 3
REMARK  Name = ../refined-set-2016/4re4/4re4_pocket.pdb
REMARK  144 active torsions:
REMARK  status: ('A' for Active; 'I' for Inactive)
REMARK    1  A    between atoms: _1  and  _3
REMARK    2  A    between atoms: _3  and  _4
REMARK    3  A    between atoms: _7  and  _9
REMARK    4  A    between atoms: _9  and  _10
REMARK    5  A    between atoms: _13  and  _15
REMARK    6  A    between atoms: _15  and  _16
REMARK    7  A    between atoms: _15  and  _18
REMARK    8  A    between atoms: _18  and  _19
REMARK    9  A    between atoms: _21  and  _23
REMARK   10  A    between atoms: _23  and  _24
REMARK   11  A    between atoms: _23  and  _26
REMARK   12  A    between atoms: _26  and  _27
REMARK   13  A    between atoms: _27  and  _28
REMARK   14  A    between atoms: _33  and  _35
REMARK   15  A    between atoms: _35  and  _36
REMARK   16  A    between atoms: _35  and  _38
REMARK   17  A    between atoms: _38  and  _39
REMARK   18  A    between atoms: _39  and  _40
REMARK   19  A    between atoms: _40  and  _41
REMARK   20  A    between atoms: _50  and  _52
REMARK   21  A    between atoms: _52  and  _53
REMARK   22  A    between atoms: _52  and  _55
REMARK   23  A    between atoms: _55  and  _56
REMARK   24  A    between atoms: _61  and  _63
REMARK   25  A    between atoms: _63  and  _64
REMARK   26  A    between atoms: _63  and  _66
REMARK   27  A    between atoms: _66  and  _67
REMARK   28  A    between atoms: _72  and  _74
REMARK   29  A    between atoms: _74  and  _75
REMARK   30  A    between atoms: _74  and  _77
REMARK   31  A    between atoms: _77  and  _78
REMARK   32  A    between atoms: _83  and  _84
REMARK   33  A    between atoms: _86  and  _88
REMARK   34  A    between atoms: _88  and  _89
REMARK   35  A    between atoms: _88  and  _91
REMARK   36  A    between atoms: _91  and  _92
REMARK   37  A    between atoms: _97  and  _99
REMARK   38  A    between atoms: _99  and  _100
REMARK   39  A    between atoms: _99  and  _102
REMARK   40  A    between atoms: _102  and  _103
REMARK   41  A    between atoms: _103  and  _104
REMARK   42  A    between atoms: _107  and  _109
REMARK   43  A    between atoms: _109  and  _110
REMARK   44  A    between atoms: _109  and  _112
REMARK   45  A    between atoms: _114  and  _116
REMARK   46  A    between atoms: _116  and  _117
REMARK   47  A    between atoms: _116  and  _119
REMARK   48  A    between atoms: _119  and  _120
REMARK   49  A    between atoms: _125  and  _127
REMARK   50  A    between atoms: _127  and  _128
REMARK   51  A    between atoms: _127  and  _130
REMARK   52  A    between atoms: _130  and  _131
REMARK   53  A    between atoms: _134  and  _136
REMARK   54  A    between atoms: _136  and  _137
REMARK   55  A    between atoms: _136  and  _139
REMARK   56  A    between atoms: _139  and  _140
REMARK   57  A    between atoms: _145  and  _147
REMARK   58  A    between atoms: _147  and  _148
REMARK   59  A    between atoms: _147  and  _150
REMARK   60  A    between atoms: _150  and  _151
REMARK   61  A    between atoms: _156  and  _158
REMARK   62  A    between atoms: _158  and  _159
REMARK   63  A    between atoms: _158  and  _161
REMARK   64  A    between atoms: _161  and  _162
REMARK   65  A    between atoms: _167  and  _168
REMARK   66  A    between atoms: _170  and  _172
REMARK   67  A    between atoms: _172  and  _173
REMARK   68  A    between atoms: _172  and  _175
REMARK   69  A    between atoms: _175  and  _176
REMARK   70  A    between atoms: _178  and  _180
REMARK   71  A    between atoms: _180  and  _181
REMARK   72  A    between atoms: _180  and  _183
REMARK   73  A    between atoms: _183  and  _184
REMARK   74  A    between atoms: _194  and  _196
REMARK   75  A    between atoms: _196  and  _197
REMARK   76  A    between atoms: _196  and  _199
REMARK   77  A    between atoms: _199  and  _200
REMARK   78  A    between atoms: _203  and  _205
REMARK   79  A    between atoms: _205  and  _206
REMARK   80  A    between atoms: _205  and  _208
REMARK   81  A    between atoms: _208  and  _209
REMARK   82  A    between atoms: _211  and  _213
REMARK   83  A    between atoms: _213  and  _214
REMARK   84  A    between atoms: _213  and  _216
REMARK   85  A    between atoms: _216  and  _217
REMARK   86  A    between atoms: _217  and  _218
REMARK   87  A    between atoms: _221  and  _223
REMARK   88  A    between atoms: _223  and  _224
REMARK   89  A    between atoms: _223  and  _226
REMARK   90  A    between atoms: _226  and  _227
REMARK   91  A    between atoms: _232  and  _234
REMARK   92  A    between atoms: _234  and  _235
REMARK   93  A    between atoms: _237  and  _239
REMARK   94  A    between atoms: _239  and  _240
REMARK   95  A    between atoms: _239  and  _242
REMARK   96  A    between atoms: _242  and  _243
REMARK   97  A    between atoms: _243  and  _244
REMARK   98  A    between atoms: _246  and  _248
REMARK   99  A    between atoms: _248  and  _249
REMARK  100  A    between atoms: _248  and  _251
REMARK  101  A    between atoms: _251  and  _252
REMARK  102  A    between atoms: _255  and  _257
REMARK  103  A    between atoms: _257  and  _258
REMARK  104  A    between atoms: _257  and  _260
REMARK  105  A    between atoms: _260  and  _261
REMARK  106  A    between atoms: _271  and  _273
REMARK  107  A    between atoms: _273  and  _274
REMARK  108  A    between atoms: _273  and  _276
REMARK  109  A    between atoms: _276  and  _277
REMARK  110  A    between atoms: _279  and  _281
REMARK  111  A    between atoms: _281  and  _282
REMARK  112  A    between atoms: _281  and  _284
REMARK  113  A    between atoms: _284  and  _285
REMARK  114  A    between atoms: _290  and  _292
REMARK  115  A    between atoms: _292  and  _293
REMARK  116  A    between atoms: _292  and  _295
REMARK  117  A    between atoms: _295  and  _296
REMARK  118  A    between atoms: _302  and  _304
REMARK  119  A    between atoms: _304  and  _305
REMARK  120  A    between atoms: _304  and  _307
REMARK  121  A    between atoms: _307  and  _308
REMARK  122  A    between atoms: _308  and  _309
REMARK  123  A    between atoms: _312  and  _314
REMARK  124  A    between atoms: _314  and  _315
REMARK  125  A    between atoms: _314  and  _317
REMARK  126  A    between atoms: _317  and  _318
REMARK  127  A    between atoms: _328  and  _330
REMARK  128  A    between atoms: _330  and  _331
REMARK  129  A    between atoms: _330  and  _333
REMARK  130  A    between atoms: _333  and  _334
REMARK  131  A    between atoms: _334  and  _335
REMARK  132  A    between atoms: _335  and  _336
REMARK  133  A    between atoms: _345  and  _347
REMARK  134  A    between atoms: _347  and  _348
REMARK  135  A    between atoms: _347  and  _350
REMARK  136  A    between atoms: _350  and  _351
REMARK  137  A    between atoms: _354  and  _356
REMARK  138  A    between atoms: _356  and  _357
REMARK  139  A    between atoms: _356  and  _359
REMARK  140  A    between atoms: _359  and  _360
REMARK  141  A    between atoms: _362  and  _364
REMARK  142  A    between atoms: _364  and  _365
REMARK  143  A    between atoms: _364  and  _367
REMARK  144  A    between atoms: _367  and  _368
REMARK                            x       y       z     vdW  Elec       q    Type
REMARK                         _______ _______ _______ _____ _____    ______ ____
ROOT
ATOM      1  CB  HIS A   1      -1.015   8.893   9.128  0.00  0.00    +0.072 C 
ENDROOT
BRANCH   1   2
ATOM      2  CG  HIS A   1       0.280   9.613   8.911  0.00  0.00    +0.082 A 
ATOM      3  ND1 HIS A   1       1.272   9.662   9.869  0.00  0.00    -0.227 NA
ATOM      4  CE1 HIS A   1       2.292  10.361   9.405  0.00  0.00    +0.199 A 
ATOM      5  NE2 HIS A   1       2.005  10.756   8.177  0.00  0.00    -0.221 NA
ATOM      6  CD2 HIS A   1       0.753  10.301   7.844  0.00  0.00    +0.115 A 
ENDBRANCH   1   2
BRANCH   1   7
ATOM      7  CA  HIS A   1      -1.825   8.670   7.851  0.00  0.00    +0.139 C 
BRANCH   7   8
ATOM      8  N   HIS A   1      -2.501   9.913   7.478  0.00  0.00    -0.239 NA
ATOM      9  H   HIS A   1      -3.055  10.418   8.199  0.00  0.00    +0.142 HD
ENDBRANCH   7   8
BRANCH   7  10
ATOM     10  C   HIS A   1      -2.832   7.531   8.064  0.00  0.00    +0.224 C 
ATOM     11  O   HIS A   1      -4.034   7.773   8.180  0.00  0.00    -0.287 OA
ENDBRANCH   7  10
ENDBRANCH   1   7
TORSDOF 4
REMARK  Name = ../refined-set-2016/4re4/4re4_pocket.pdb
REMARK  144 active torsions:
REMARK  status: ('A' for Active; 'I' for Inactive)
REMARK    1  A    between atoms: _1  and  _3
REMARK    2  A    between atoms: _3  and  _4
REMARK    3  A    between atoms: _7  and  _9
REMARK    4  A    between atoms: _9  and  _10
REMARK    5  A    between atoms: _13  and  _15
REMARK    6  A    between atoms: _15  and  _16
REMARK    7  A    between atoms: _15  and  _18
REMARK    8  A    between atoms: _18  and  _19
REMARK    9  A    between atoms: _21  and  _23
REMARK   10  A    between atoms: _23  and  _24
REMARK   11  A    between atoms: _23  and  _26
REMARK   12  A    between atoms: _26  and  _27
REMARK   13  A    between atoms: _27  and  _28
REMARK   14  A    between atoms: _33  and  _35
REMARK   15  A    between atoms: _35  and  _36
REMARK   16  A    between atoms: _35  and  _38
REMARK   17  A    between atoms: _38  and  _39
REMARK   18  A    between atoms: _39  and  _40
REMARK   19  A    between atoms: _40  and  _41
REMARK   20  A    between atoms: _50  and  _52
REMARK   21  A    between atoms: _52  and  _53
REMARK   22  A    between atoms: _52  and  _55
REMARK   23  A    between atoms: _55  and  _56
REMARK   24  A    between atoms: _61  and  _63
REMARK   25  A    between atoms: _63  and  _64
REMARK   26  A    between atoms: _63  and  _66
REMARK   27  A    between atoms: _66  and  _67
REMARK   28  A    between atoms: _72  and  _74
REMARK   29  A    between atoms: _74  and  _75
REMARK   30  A    between atoms: _74  and  _77
REMARK   31  A    between atoms: _77  and  _78
REMARK   32  A    between atoms: _83  and  _84
REMARK   33  A    between atoms: _86  and  _88
REMARK   34  A    between atoms: _88  and  _89
REMARK   35  A    between atoms: _88  and  _91
REMARK   36  A    between atoms: _91  and  _92
REMARK   37  A    between atoms: _97  and  _99
REMARK   38  A    between atoms: _99  and  _100
REMARK   39  A    between atoms: _99  and  _102
REMARK   40  A    between atoms: _102  and  _103
REMARK   41  A    between atoms: _103  and  _104
REMARK   42  A    between atoms: _107  and  _109
REMARK   43  A    between atoms: _109  and  _110
REMARK   44  A    between atoms: _109  and  _112
REMARK   45  A    between atoms: _114  and  _116
REMARK   46  A    between atoms: _116  and  _117
REMARK   47  A    between atoms: _116  and  _119
REMARK   48  A    between atoms: _119  and  _120
REMARK   49  A    between atoms: _125  and  _127
REMARK   50  A    between atoms: _127  and  _128
REMARK   51  A    between atoms: _127  and  _130
REMARK   52  A    between atoms: _130  and  _131
REMARK   53  A    between atoms: _134  and  _136
REMARK   54  A    between atoms: _136  and  _137
REMARK   55  A    between atoms: _136  and  _139
REMARK   56  A    between atoms: _139  and  _140
REMARK   57  A    between atoms: _145  and  _147
REMARK   58  A    between atoms: _147  and  _148
REMARK   59  A    between atoms: _147  and  _150
REMARK   60  A    between atoms: _150  and  _151
REMARK   61  A    between atoms: _156  and  _158
REMARK   62  A    between atoms: _158  and  _159
REMARK   63  A    between atoms: _158  and  _161
REMARK   64  A    between atoms: _161  and  _162
REMARK   65  A    between atoms: _167  and  _168
REMARK   66  A    between atoms: _170  and  _172
REMARK   67  A    between atoms: _172  and  _173
REMARK   68  A    between atoms: _172  and  _175
REMARK   69  A    between atoms: _175  and  _176
REMARK   70  A    between atoms: _178  and  _180
REMARK   71  A    between atoms: _180  and  _181
REMARK   72  A    between atoms: _180  and  _183
REMARK   73  A    between atoms: _183  and  _184
REMARK   74  A    between atoms: _194  and  _196
REMARK   75  A    between atoms: _196  and  _197
REMARK   76  A    between atoms: _196  and  _199
REMARK   77  A    between atoms: _199  and  _200
REMARK   78  A    between atoms: _203  and  _205
REMARK   79  A    between atoms: _205  and  _206
REMARK   80  A    between atoms: _205  and  _208
REMARK   81  A    between atoms: _208  and  _209
REMARK   82  A    between atoms: _211  and  _213
REMARK   83  A    between atoms: _213  and  _214
REMARK   84  A    between atoms: _213  and  _216
REMARK   85  A    between atoms: _216  and  _217
REMARK   86  A    between atoms: _217  and  _218
REMARK   87  A    between atoms: _221  and  _223
REMARK   88  A    between atoms: _223  and  _224
REMARK   89  A    between atoms: _223  and  _226
REMARK   90  A    between atoms: _226  and  _227
REMARK   91  A    between atoms: _232  and  _234
REMARK   92  A    between atoms: _234  and  _235
REMARK   93  A    between atoms: _237  and  _239
REMARK   94  A    between atoms: _239  and  _240
REMARK   95  A    between atoms: _239  and  _242
REMARK   96  A    between atoms: _242  and  _243
REMARK   97  A    between atoms: _243  and  _244
REMARK   98  A    between atoms: _246  and  _248
REMARK   99  A    between atoms: _248  and  _249
REMARK  100  A    between atoms: _248  and  _251
REMARK  101  A    between atoms: _251  and  _252
REMARK  102  A    between atoms: _255  and  _257
REMARK  103  A    between atoms: _257  and  _258
REMARK  104  A    between atoms: _257  and  _260
REMARK  105  A    between atoms: _260  and  _261
REMARK  106  A    between atoms: _271  and  _273
REMARK  107  A    between atoms: _273  and  _274
REMARK  108  A    between atoms: _273  and  _276
REMARK  109  A    between atoms: _276  and  _277
REMARK  110  A    between atoms: _279  and  _281
REMARK  111  A    between atoms: _281  and  _282
REMARK  112  A    between atoms: _281  and  _284
REMARK  113  A    between atoms: _284  and  _285
REMARK  114  A    between atoms: _290  and  _292
REMARK  115  A    between atoms: _292  and  _293
REMARK  116  A    between atoms: _292  and  _295
REMARK  117  A    between atoms: _295  and  _296
REMARK  118  A    between atoms: _302  and  _304
REMARK  119  A    between atoms: _304  and  _305
REMARK  120  A    between atoms: _304  and  _307
REMARK  121  A    between atoms: _307  and  _308
REMARK  122  A    between atoms: _308  and  _309
REMARK  123  A    between atoms: _312  and  _314
REMARK  124  A    between atoms: _314  and  _315
REMARK  125  A    between atoms: _314  and  _317
REMARK  126  A    between atoms: _317  and  _318
REMARK  127  A    between atoms: _328  and  _330
REMARK  128  A    between atoms: _330  and  _331
REMARK  129  A    between atoms: _330  and  _333
REMARK  130  A    between atoms: _333  and  _334
REMARK  131  A    between atoms: _334  and  _335
REMARK  132  A    between atoms: _335  and  _336
REMARK  133  A    between atoms: _345  and  _347
REMARK  134  A    between atoms: _347  and  _348
REMARK  135  A    between atoms: _347  and  _350
REMARK  136  A    between atoms: _350  and  _351
REMARK  137  A    between atoms: _354  and  _356
REMARK  138  A    between atoms: _356  and  _357
REMARK  139  A    between atoms: _356  and  _359
REMARK  140  A    between atoms: _359  and  _360
REMARK  141  A    between atoms: _362  and  _364
REMARK  142  A    between atoms: _364  and  _365
REMARK  143  A    between atoms: _364  and  _367
REMARK  144  A    between atoms: _367  and  _368
REMARK                            x       y       z     vdW  Elec       q    Type
REMARK                         _______ _______ _______ _____ _____    ______ ____
ROOT
ATOM      1  CA  ASP A   1       5.809  16.404  19.205  0.00  0.00    +0.144 C 
ENDROOT
BRANCH   1   2
ATOM      2  N   ASP A   1       5.371  15.392  20.145  0.00  0.00    -0.239 NA
ATOM      3  H   ASP A   1       4.565  14.777  19.914  0.00  0.00    +0.142 HD
ENDBRANCH   1   2
BRANCH   1   4
ATOM      4  C   ASP A   1       5.338  17.773  19.685  0.00  0.00    +0.225 C 
ATOM      5  O   ASP A   1       4.252  17.910  20.278  0.00  0.00    -0.287 OA
ENDBRANCH   1   4
BRANCH   1   6
ATOM      6  CB  ASP A   1       5.322  16.118  17.792  0.00  0.00    +0.139 C 
BRANCH   6   7
ATOM      7  CG  ASP A   1       3.830  15.924  17.719  0.00  0.00    +0.367 C 
ATOM      8  OD2 ASP A   1       3.284  15.090  18.496  0.00  0.00    -0.246 OA
ATOM      9  OD1 ASP A   1       3.205  16.594  16.861  0.00  0.00    -0.246 OA
ENDBRANCH   6   7
ENDBRANCH   1   6
TORSDOF 4
REMARK  Name = ../refined-set-2016/4re4/4re4_pocket.pdb
REMARK  144 active torsions:
REMARK  status: ('A' for Active; 'I' for Inactive)
REMARK    1  A    between atoms: _1  and  _3
REMARK    2  A    between atoms: _3  and  _4
REMARK    3  A    between atoms: _7  and  _9
REMARK    4  A    between atoms: _9  and  _10
REMARK    5  A    between atoms: _13  and  _15
REMARK    6  A    between atoms: _15  and  _16
REMARK    7  A    between atoms: _15  and  _18
REMARK    8  A    between atoms: _18  and  _19
REMARK    9  A    between atoms: _21  and  _23
REMARK   10  A    between atoms: _23  and  _24
REMARK   11  A    between atoms: _23  and  _26
REMARK   12  A    between atoms: _26  and  _27
REMARK   13  A    between atoms: _27  and  _28
REMARK   14  A    between atoms: _33  and  _35
REMARK   15  A    between atoms: _35  and  _36
REMARK   16  A    between atoms: _35  and  _38
REMARK   17  A    between atoms: _38  and  _39
REMARK   18  A    between atoms: _39  and  _40
REMARK   19  A    between atoms: _40  and  _41
REMARK   20  A    between atoms: _50  and  _52
REMARK   21  A    between atoms: _52  and  _53
REMARK   22  A    between atoms: _52  and  _55
REMARK   23  A    between atoms: _55  and  _56
REMARK   24  A    between atoms: _61  and  _63
REMARK   25  A    between atoms: _63  and  _64
REMARK   26  A    between atoms: _63  and  _66
REMARK   27  A    between atoms: _66  and  _67
REMARK   28  A    between atoms: _72  and  _74
REMARK   29  A    between atoms: _74  and  _75
REMARK   30  A    between atoms: _74  and  _77
REMARK   31  A    between atoms: _77  and  _78
REMARK   32  A    between atoms: _83  and  _84
REMARK   33  A    between atoms: _86  and  _88
REMARK   34  A    between atoms: _88  and  _89
REMARK   35  A    between atoms: _88  and  _91
REMARK   36  A    between atoms: _91  and  _92
REMARK   37  A    between atoms: _97  and  _99
REMARK   38  A    between atoms: _99  and  _100
REMARK   39  A    between atoms: _99  and  _102
REMARK   40  A    between atoms: _102  and  _103
REMARK   41  A    between atoms: _103  and  _104
REMARK   42  A    between atoms: _107  and  _109
REMARK   43  A    between atoms: _109  and  _110
REMARK   44  A    between atoms: _109  and  _112
REMARK   45  A    between atoms: _114  and  _116
REMARK   46  A    between atoms: _116  and  _117
REMARK   47  A    between atoms: _116  and  _119
REMARK   48  A    between atoms: _119  and  _120
REMARK   49  A    between atoms: _125  and  _127
REMARK   50  A    between atoms: _127  and  _128
REMARK   51  A    between atoms: _127  and  _130
REMARK   52  A    between atoms: _130  and  _131
REMARK   53  A    between atoms: _134  and  _136
REMARK   54  A    between atoms: _136  and  _137
REMARK   55  A    between atoms: _136  and  _139
REMARK   56  A    between atoms: _139  and  _140
REMARK   57  A    between atoms: _145  and  _147
REMARK   58  A    between atoms: _147  and  _148
REMARK   59  A    between atoms: _147  and  _150
REMARK   60  A    between atoms: _150  and  _151
REMARK   61  A    between atoms: _156  and  _158
REMARK   62  A    between atoms: _158  and  _159
REMARK   63  A    between atoms: _158  and  _161
REMARK   64  A    between atoms: _161  and  _162
REMARK   65  A    between atoms: _167  and  _168
REMARK   66  A    between atoms: _170  and  _172
REMARK   67  A    between atoms: _172  and  _173
REMARK   68  A    between atoms: _172  and  _175
REMARK   69  A    between atoms: _175  and  _176
REMARK   70  A    between atoms: _178  and  _180
REMARK   71  A    between atoms: _180  and  _181
REMARK   72  A    between atoms: _180  and  _183
REMARK   73  A    between atoms: _183  and  _184
REMARK   74  A    between atoms: _194  and  _196
REMARK   75  A    between atoms: _196  and  _197
REMARK   76  A    between atoms: _196  and  _199
REMARK   77  A    between atoms: _199  and  _200
REMARK   78  A    between atoms: _203  and  _205
REMARK   79  A    between atoms: _205  and  _206
REMARK   80  A    between atoms: _205  and  _208
REMARK   81  A    between atoms: _208  and  _209
REMARK   82  A    between atoms: _211  and  _213
REMARK   83  A    between atoms: _213  and  _214
REMARK   84  A    between atoms: _213  and  _216
REMARK   85  A    between atoms: _216  and  _217
REMARK   86  A    between atoms: _217  and  _218
REMARK   87  A    between atoms: _221  and  _223
REMARK   88  A    between atoms: _223  and  _224
REMARK   89  A    between atoms: _223  and  _226
REMARK   90  A    between atoms: _226  and  _227
REMARK   91  A    between atoms: _232  and  _234
REMARK   92  A    between atoms: _234  and  _235
REMARK   93  A    between atoms: _237  and  _239
REMARK   94  A    between atoms: _239  and  _240
REMARK   95  A    between atoms: _239  and  _242
REMARK   96  A    between atoms: _242  and  _243
REMARK   97  A    between atoms: _243  and  _244
REMARK   98  A    between atoms: _246  and  _248
REMARK   99  A    between atoms: _248  and  _249
REMARK  100  A    between atoms: _248  and  _251
REMARK  101  A    between atoms: _251  and  _252
REMARK  102  A    between atoms: _255  and  _257
REMARK  103  A    between atoms: _257  and  _258
REMARK  104  A    between atoms: _257  and  _260
REMARK  105  A    between atoms: _260  and  _261
REMARK  106  A    between atoms: _271  and  _273
REMARK  107  A    between atoms: _273  and  _274
REMARK  108  A    between atoms: _273  and  _276
REMARK  109  A    between atoms: _276  and  _277
REMARK  110  A    between atoms: _279  and  _281
REMARK  111  A    between atoms: _281  and  _282
REMARK  112  A    between atoms: _281  and  _284
REMARK  113  A    between atoms: _284  and  _285
REMARK  114  A    between atoms: _290  and  _292
REMARK  115  A    between atoms: _292  and  _293
REMARK  116  A    between atoms: _292  and  _295
REMARK  117  A    between atoms: _295  and  _296
REMARK  118  A    between atoms: _302  and  _304
REMARK  119  A    between atoms: _304  and  _305
REMARK  120  A    between atoms: _304  and  _307
REMARK  121  A    between atoms: _307  and  _308
REMARK  122  A    between atoms: _308  and  _309
REMARK  123  A    between atoms: _312  and  _314
REMARK  124  A    between atoms: _314  and  _315
REMARK  125  A    between atoms: _314  and  _317
REMARK  126  A    between atoms: _317  and  _318
REMARK  127  A    between atoms: _328  and  _330
REMARK  128  A    between atoms: _330  and  _331
REMARK  129  A    between atoms: _330  and  _333
REMARK  130  A    between atoms: _333  and  _334
REMARK  131  A    between atoms: _334  and  _335
REMARK  132  A    between atoms: _335  and  _336
REMARK  133  A    between atoms: _345  and  _347
REMARK  134  A    between atoms: _347  and  _348
REMARK  135  A    between atoms: _347  and  _350
REMARK  136  A    between atoms: _350  and  _351
REMARK  137  A    between atoms: _354  and  _356
REMARK  138  A    between atoms: _356  and  _357
REMARK  139  A    between atoms: _356  and  _359
REMARK  140  A    between atoms: _359  and  _360
REMARK  141  A    between atoms: _362  and  _364
REMARK  142  A    between atoms: _364  and  _365
REMARK  143  A    between atoms: _364  and  _367
REMARK  144  A    between atoms: _367  and  _368
REMARK                            x       y       z     vdW  Elec       q    Type
REMARK                         _______ _______ _______ _____ _____    ______ ____
ROOT
ATOM      1  CA  HIS A   2      10.913  19.402  18.073  0.00  0.00    +0.155 C 
ENDROOT
BRANCH   1   4
ATOM      2  C   ASN A   1       9.992  17.304  18.911  0.00  0.00    +0.239 C 
ATOM      3  O   ASN A   1       8.866  17.760  18.896  0.00  0.00    -0.274 OA
ATOM      4  N   HIS A   2      11.047  18.006  18.508  0.00  0.00    -0.297 N 
ATOM      5  H   HIS A   2      11.985  17.558  18.501  0.00  0.00    +0.150 HD
BRANCH   2   6
ATOM      6  CA  ASN A   1      10.224  15.900  19.448  0.00  0.00    +0.154 C 
BRANCH   6   7
ATOM      7  N   ASN A   1       9.795  15.928  20.845  0.00  0.00    -0.238 NA
ATOM      8  H   ASN A   1       8.826  15.631  21.077  0.00  0.00    +0.142 HD
ENDBRANCH   6   7
BRANCH   6   9
ATOM      9  CB  ASN A   1       9.399  14.903  18.613  0.00  0.00    +0.111 C 
BRANCH   9  10
ATOM     10  CG  ASN A   1       9.609  13.425  19.013  0.00  0.00    +0.221 C 
ATOM     11  OD1 ASN A   1      10.438  13.078  19.855  0.00  0.00    -0.275 OA
ATOM     12  ND2 ASN A   1       8.862  12.549  18.362  0.00  0.00    -0.329 N 
ATOM     13 HD21 ASN A   1       8.965  11.532  18.555  0.00  0.00    +0.145 HD
ATOM     14 HD22 ASN A   1       8.171  12.877  17.657  0.00  0.00    +0.145 HD
ENDBRANCH   9  10
ENDBRANCH   6   9
ENDBRANCH   2   6
ENDBRANCH   1   4
BRANCH   1  15
ATOM     15  C   HIS A   2      11.689  19.673  16.803  0.00  0.00    +0.241 C 
ATOM     16  O   HIS A   2      12.864  19.353  16.724  0.00  0.00    -0.273 OA
ATOM     17  N   TYR A   3      11.040  20.314  15.838  0.00  0.00    -0.298 N 
ATOM     18  H   TYR A   3      10.067  20.635  16.015  0.00  0.00    +0.150 HD
BRANCH  17  19
ATOM     19  CA  TYR A   3      11.643  20.583  14.540  0.00  0.00    +0.141 C 
BRANCH  19  20
ATOM     20  C   TYR A   3      11.509  22.016  14.115  0.00  0.00    +0.227 C 
ATOM     21  O   TYR A   3      12.400  22.542  13.462  0.00  0.00    -0.286 OA
ENDBRANCH  19  20
BRANCH  19  22
ATOM     22  CB  TYR A   3      10.960  19.745  13.447  0.00  0.00    +0.054 C 
BRANCH  22  23
ATOM     23  CG  TYR A   3      11.233  18.266  13.516  0.00  0.00    -0.020 A 
ATOM     24  CD2 TYR A   3      10.425  17.417  14.290  0.00  0.00    -0.001 A 
ATOM     25  CE2 TYR A   3      10.668  16.062  14.351  0.00  0.00    +0.036 A 
ATOM     26  CZ  TYR A   3      11.732  15.529  13.614  0.00  0.00    +0.134 A 
ATOM     27  CE1 TYR A   3      12.534  16.343  12.830  0.00  0.00    +0.036 A 
ATOM     28  CD1 TYR A   3      12.280  17.711  12.792  0.00  0.00    -0.001 A 
BRANCH  26  29
ATOM     29  OH  TYR A   3      11.988  14.179  13.636  0.00  0.00    -0.506 OA
ATOM     30  HH  TYR A   3      11.339  13.731  14.235  0.00  0.00    +0.292 HD
ENDBRANCH  26  29
ENDBRANCH  22  23
ENDBRANCH  19  22
ENDBRANCH  17  19
ENDBRANCH   1  15
BRANCH   1  31
ATOM     31  CB  HIS A   2      11.393  20.386  19.142  0.00  0.00    +0.076 C 
BRANCH  31  32
ATOM     32  CG  HIS A   2      11.333  21.812  18.690  0.00  0.00    +0.082 A 
ATOM     33  ND1 HIS A   2      10.171  22.554  18.732  0.00  0.00    -0.227 NA
ATOM     34  CE1 HIS A   2      10.403  23.760  18.245  0.00  0.00    +0.199 A 
ATOM     35  NE2 HIS A   2      11.665  23.817  17.855  0.00  0.00    -0.221 NA
ATOM     36  CD2 HIS A   2      12.271  22.612  18.124  0.00  0.00    +0.115 A 
ENDBRANCH  31  32
ENDBRANCH   1  31
TORSDOF 13
REMARK  Name = ../refined-set-2016/4re4/4re4_pocket.pdb
REMARK  144 active torsions:
REMARK  status: ('A' for Active; 'I' for Inactive)
REMARK    1  A    between atoms: _1  and  _3
REMARK    2  A    between atoms: _3  and  _4
REMARK    3  A    between atoms: _7  and  _9
REMARK    4  A    between atoms: _9  and  _10
REMARK    5  A    between atoms: _13  and  _15
REMARK    6  A    between atoms: _15  and  _16
REMARK    7  A    between atoms: _15  and  _18
REMARK    8  A    between atoms: _18  and  _19
REMARK    9  A    between atoms: _21  and  _23
REMARK   10  A    between atoms: _23  and  _24
REMARK   11  A    between atoms: _23  and  _26
REMARK   12  A    between atoms: _26  and  _27
REMARK   13  A    between atoms: _27  and  _28
REMARK   14  A    between atoms: _33  and  _35
REMARK   15  A    between atoms: _35  and  _36
REMARK   16  A    between atoms: _35  and  _38
REMARK   17  A    between atoms: _38  and  _39
REMARK   18  A    between atoms: _39  and  _40
REMARK   19  A    between atoms: _40  and  _41
REMARK   20  A    between atoms: _50  and  _52
REMARK   21  A    between atoms: _52  and  _53
REMARK   22  A    between atoms: _52  and  _55
REMARK   23  A    between atoms: _55  and  _56
REMARK   24  A    between atoms: _61  and  _63
REMARK   25  A    between atoms: _63  and  _64
REMARK   26  A    between atoms: _63  and  _66
REMARK   27  A    between atoms: _66  and  _67
REMARK   28  A    between atoms: _72  and  _74
REMARK   29  A    between atoms: _74  and  _75
REMARK   30  A    between atoms: _74  and  _77
REMARK   31  A    between atoms: _77  and  _78
REMARK   32  A    between atoms: _83  and  _84
REMARK   33  A    between atoms: _86  and  _88
REMARK   34  A    between atoms: _88  and  _89
REMARK   35  A    between atoms: _88  and  _91
REMARK   36  A    between atoms: _91  and  _92
REMARK   37  A    between atoms: _97  and  _99
REMARK   38  A    between atoms: _99  and  _100
REMARK   39  A    between atoms: _99  and  _102
REMARK   40  A    between atoms: _102  and  _103
REMARK   41  A    between atoms: _103  and  _104
REMARK   42  A    between atoms: _107  and  _109
REMARK   43  A    between atoms: _109  and  _110
REMARK   44  A    between atoms: _109  and  _112
REMARK   45  A    between atoms: _114  and  _116
REMARK   46  A    between atoms: _116  and  _117
REMARK   47  A    between atoms: _116  and  _119
REMARK   48  A    between atoms: _119  and  _120
REMARK   49  A    between atoms: _125  and  _127
REMARK   50  A    between atoms: _127  and  _128
REMARK   51  A    between atoms: _127  and  _130
REMARK   52  A    between atoms: _130  and  _131
REMARK   53  A    between atoms: _134  and  _136
REMARK   54  A    between atoms: _136  and  _137
REMARK   55  A    between atoms: _136  and  _139
REMARK   56  A    between atoms: _139  and  _140
REMARK   57  A    between atoms: _145  and  _147
REMARK   58  A    between atoms: _147  and  _148
REMARK   59  A    between atoms: _147  and  _150
REMARK   60  A    between atoms: _150  and  _151
REMARK   61  A    between atoms: _156  and  _158
REMARK   62  A    between atoms: _158  and  _159
REMARK   63  A    between atoms: _158  and  _161
REMARK   64  A    between atoms: _161  and  _162
REMARK   65  A    between atoms: _167  and  _168
REMARK   66  A    between atoms: _170  and  _172
REMARK   67  A    between atoms: _172  and  _173
REMARK   68  A    between atoms: _172  and  _175
REMARK   69  A    between atoms: _175  and  _176
REMARK   70  A    between atoms: _178  and  _180
REMARK   71  A    between atoms: _180  and  _181
REMARK   72  A    between atoms: _180  and  _183
REMARK   73  A    between atoms: _183  and  _184
REMARK   74  A    between atoms: _194  and  _196
REMARK   75  A    between atoms: _196  and  _197
REMARK   76  A    between atoms: _196  and  _199
REMARK   77  A    between atoms: _199  and  _200
REMARK   78  A    between atoms: _203  and  _205
REMARK   79  A    between atoms: _205  and  _206
REMARK   80  A    between atoms: _205  and  _208
REMARK   81  A    between atoms: _208  and  _209
REMARK   82  A    between atoms: _211  and  _213
REMARK   83  A    between atoms: _213  and  _214
REMARK   84  A    between atoms: _213  and  _216
REMARK   85  A    between atoms: _216  and  _217
REMARK   86  A    between atoms: _217  and  _218
REMARK   87  A    between atoms: _221  and  _223
REMARK   88  A    between atoms: _223  and  _224
REMARK   89  A    between atoms: _223  and  _226
REMARK   90  A    between atoms: _226  and  _227
REMARK   91  A    between atoms: _232  and  _234
REMARK   92  A    between atoms: _234  and  _235
REMARK   93  A    between atoms: _237  and  _239
REMARK   94  A    between atoms: _239  and  _240
REMARK   95  A    between atoms: _239  and  _242
REMARK   96  A    between atoms: _242  and  _243
REMARK   97  A    between atoms: _243  and  _244
REMARK   98  A    between atoms: _246  and  _248
REMARK   99  A    between atoms: _248  and  _249
REMARK  100  A    between atoms: _248  and  _251
REMARK  101  A    between atoms: _251  and  _252
REMARK  102  A    between atoms: _255  and  _257
REMARK  103  A    between atoms: _257  and  _258
REMARK  104  A    between atoms: _257  and  _260
REMARK  105  A    between atoms: _260  and  _261
REMARK  106  A    between atoms: _271  and  _273
REMARK  107  A    between atoms: _273  and  _274
REMARK  108  A    between atoms: _273  and  _276
REMARK  109  A    between atoms: _276  and  _277
REMARK  110  A    between atoms: _279  and  _281
REMARK  111  A    between atoms: _281  and  _282
REMARK  112  A    between atoms: _281  and  _284
REMARK  113  A    between atoms: _284  and  _285
REMARK  114  A    between atoms: _290  and  _292
REMARK  115  A    between atoms: _292  and  _293
REMARK  116  A    between atoms: _292  and  _295
REMARK  117  A    between atoms: _295  and  _296
REMARK  118  A    between atoms: _302  and  _304
REMARK  119  A    between atoms: _304  and  _305
REMARK  120  A    between atoms: _304  and  _307
REMARK  121  A    between atoms: _307  and  _308
REMARK  122  A    between atoms: _308  and  _309
REMARK  123  A    between atoms: _312  and  _314
REMARK  124  A    between atoms: _314  and  _315
REMARK  125  A    between atoms: _314  and  _317
REMARK  126  A    between atoms: _317  and  _318
REMARK  127  A    between atoms: _328  and  _330
REMARK  128  A    between atoms: _330  and  _331
REMARK  129  A    between atoms: _330  and  _333
REMARK  130  A    between atoms: _333  and  _334
REMARK  131  A    between atoms: _334  and  _335
REMARK  132  A    between atoms: _335  and  _336
REMARK  133  A    between atoms: _345  and  _347
REMARK  134  A    between atoms: _347  and  _348
REMARK  135  A    between atoms: _347  and  _350
REMARK  136  A    between atoms: _350  and  _351
REMARK  137  A    between atoms: _354  and  _356
REMARK  138  A    between atoms: _356  and  _357
REMARK  139  A    between atoms: _356  and  _359
REMARK  140  A    between atoms: _359  and  _360
REMARK  141  A    between atoms: _362  and  _364
REMARK  142  A    between atoms: _364  and  _365
REMARK  143  A    between atoms: _364  and  _367
REMARK  144  A    between atoms: _367  and  _368
REMARK                            x       y       z     vdW  Elec       q    Type
REMARK                         _______ _______ _______ _____ _____    ______ ____
ROOT
ATOM      1  CA  SER A   1       9.154  18.876   3.962  0.00  0.00    +0.163 C 
ENDROOT
BRANCH   1   2
ATOM      2  N   SER A   1      10.528  19.107   3.457  0.00  0.00    -0.237 NA
ATOM      3  H   SER A   1      11.327  18.913   4.094  0.00  0.00    +0.142 HD
ENDBRANCH   1   2
BRANCH   1   4
ATOM      4  CB  SER A   1       8.335  20.162   4.056  0.00  0.00    +0.227 C 
ATOM      5  OG  SER A   1       8.822  21.169   4.577  0.00  0.00    -0.287 OA
ENDBRANCH   1   4
BRANCH   1   6
ATOM      6  C   SER A   1       9.188  18.218   5.345  0.00  0.00    +0.162 C 
BRANCH   6   7
ATOM      7  O   SER A   1       9.381  16.813   5.260  0.00  0.00    -0.380 OA
ATOM      8  H   SER A   1      10.241  16.626   4.806  0.00  0.00    +0.211 HD
ENDBRANCH   6   7
ENDBRANCH   1   6
TORSDOF 4
REMARK  Name = ../refined-set-2016/4re4/4re4_pocket.pdb
REMARK  144 active torsions:
REMARK  status: ('A' for Active; 'I' for Inactive)
REMARK    1  A    between atoms: _1  and  _3
REMARK    2  A    between atoms: _3  and  _4
REMARK    3  A    between atoms: _7  and  _9
REMARK    4  A    between atoms: _9  and  _10
REMARK    5  A    between atoms: _13  and  _15
REMARK    6  A    between atoms: _15  and  _16
REMARK    7  A    between atoms: _15  and  _18
REMARK    8  A    between atoms: _18  and  _19
REMARK    9  A    between atoms: _21  and  _23
REMARK   10  A    between atoms: _23  and  _24
REMARK   11  A    between atoms: _23  and  _26
REMARK   12  A    between atoms: _26  and  _27
REMARK   13  A    between atoms: _27  and  _28
REMARK   14  A    between atoms: _33  and  _35
REMARK   15  A    between atoms: _35  and  _36
REMARK   16  A    between atoms: _35  and  _38
REMARK   17  A    between atoms: _38  and  _39
REMARK   18  A    between atoms: _39  and  _40
REMARK   19  A    between atoms: _40  and  _41
REMARK   20  A    between atoms: _50  and  _52
REMARK   21  A    between atoms: _52  and  _53
REMARK   22  A    between atoms: _52  and  _55
REMARK   23  A    between atoms: _55  and  _56
REMARK   24  A    between atoms: _61  and  _63
REMARK   25  A    between atoms: _63  and  _64
REMARK   26  A    between atoms: _63  and  _66
REMARK   27  A    between atoms: _66  and  _67
REMARK   28  A    between atoms: _72  and  _74
REMARK   29  A    between atoms: _74  and  _75
REMARK   30  A    between atoms: _74  and  _77
REMARK   31  A    between atoms: _77  and  _78
REMARK   32  A    between atoms: _83  and  _84
REMARK   33  A    between atoms: _86  and  _88
REMARK   34  A    between atoms: _88  and  _89
REMARK   35  A    between atoms: _88  and  _91
REMARK   36  A    between atoms: _91  and  _92
REMARK   37  A    between atoms: _97  and  _99
REMARK   38  A    between atoms: _99  and  _100
REMARK   39  A    between atoms: _99  and  _102
REMARK   40  A    between atoms: _102  and  _103
REMARK   41  A    between atoms: _103  and  _104
REMARK   42  A    between atoms: _107  and  _109
REMARK   43  A    between atoms: _109  and  _110
REMARK   44  A    between atoms: _109  and  _112
REMARK   45  A    between atoms: _114  and  _116
REMARK   46  A    between atoms: _116  and  _117
REMARK   47  A    between atoms: _116  and  _119
REMARK   48  A    between atoms: _119  and  _120
REMARK   49  A    between atoms: _125  and  _127
REMARK   50  A    between atoms: _127  and  _128
REMARK   51  A    between atoms: _127  and  _130
REMARK   52  A    between atoms: _130  and  _131
REMARK   53  A    between atoms: _134  and  _136
REMARK   54  A    between atoms: _136  and  _137
REMARK   55  A    between atoms: _136  and  _139
REMARK   56  A    between atoms: _139  and  _140
REMARK   57  A    between atoms: _145  and  _147
REMARK   58  A    between atoms: _147  and  _148
REMARK   59  A    between atoms: _147  and  _150
REMARK   60  A    between atoms: _150  and  _151
REMARK   61  A    between atoms: _156  and  _158
REMARK   62  A    between atoms: _158  and  _159
REMARK   63  A    between atoms: _158  and  _161
REMARK   64  A    between atoms: _161  and  _162
REMARK   65  A    between atoms: _167  and  _168
REMARK   66  A    between atoms: _170  and  _172
REMARK   67  A    between atoms: _172  and  _173
REMARK   68  A    between atoms: _172  and  _175
REMARK   69  A    between atoms: _175  and  _176
REMARK   70  A    between atoms: _178  and  _180
REMARK   71  A    between atoms: _180  and  _181
REMARK   72  A    between atoms: _180  and  _183
REMARK   73  A    between atoms: _183  and  _184
REMARK   74  A    between atoms: _194  and  _196
REMARK   75  A    between atoms: _196  and  _197
REMARK   76  A    between atoms: _196  and  _199
REMARK   77  A    between atoms: _199  and  _200
REMARK   78  A    between atoms: _203  and  _205
REMARK   79  A    between atoms: _205  and  _206
REMARK   80  A    between atoms: _205  and  _208
REMARK   81  A    between atoms: _208  and  _209
REMARK   82  A    between atoms: _211  and  _213
REMARK   83  A    between atoms: _213  and  _214
REMARK   84  A    between atoms: _213  and  _216
REMARK   85  A    between atoms: _216  and  _217
REMARK   86  A    between atoms: _217  and  _218
REMARK   87  A    between atoms: _221  and  _223
REMARK   88  A    between atoms: _223  and  _224
REMARK   89  A    between atoms: _223  and  _226
REMARK   90  A    between atoms: _226  and  _227
REMARK   91  A    between atoms: _232  and  _234
REMARK   92  A    between atoms: _234  and  _235
REMARK   93  A    between atoms: _237  and  _239
REMARK   94  A    between atoms: _239  and  _240
REMARK   95  A    between atoms: _239  and  _242
REMARK   96  A    between atoms: _242  and  _243
REMARK   97  A    between atoms: _243  and  _244
REMARK   98  A    between atoms: _246  and  _248
REMARK   99  A    between atoms: _248  and  _249
REMARK  100  A    between atoms: _248  and  _251
REMARK  101  A    between atoms: _251  and  _252
REMARK  102  A    between atoms: _255  and  _257
REMARK  103  A    between atoms: _257  and  _258
REMARK  104  A    between atoms: _257  and  _260
REMARK  105  A    between atoms: _260  and  _261
REMARK  106  A    between atoms: _271  and  _273
REMARK  107  A    between atoms: _273  and  _274
REMARK  108  A    between atoms: _273  and  _276
REMARK  109  A    between atoms: _276  and  _277
REMARK  110  A    between atoms: _279  and  _281
REMARK  111  A    between atoms: _281  and  _282
REMARK  112  A    between atoms: _281  and  _284
REMARK  113  A    between atoms: _284  and  _285
REMARK  114  A    between atoms: _290  and  _292
REMARK  115  A    between atoms: _292  and  _293
REMARK  116  A    between atoms: _292  and  _295
REMARK  117  A    between atoms: _295  and  _296
REMARK  118  A    between atoms: _302  and  _304
REMARK  119  A    between atoms: _304  and  _305
REMARK  120  A    between atoms: _304  and  _307
REMARK  121  A    between atoms: _307  and  _308
REMARK  122  A    between atoms: _308  and  _309
REMARK  123  A    between atoms: _312  and  _314
REMARK  124  A    between atoms: _314  and  _315
REMARK  125  A    between atoms: _314  and  _317
REMARK  126  A    between atoms: _317  and  _318
REMARK  127  A    between atoms: _328  and  _330
REMARK  128  A    between atoms: _330  and  _331
REMARK  129  A    between atoms: _330  and  _333
REMARK  130  A    between atoms: _333  and  _334
REMARK  131  A    between atoms: _334  and  _335
REMARK  132  A    between atoms: _335  and  _336
REMARK  133  A    between atoms: _345  and  _347
REMARK  134  A    between atoms: _347  and  _348
REMARK  135  A    between atoms: _347  and  _350
REMARK  136  A    between atoms: _350  and  _351
REMARK  137  A    between atoms: _354  and  _356
REMARK  138  A    between atoms: _356  and  _357
REMARK  139  A    between atoms: _356  and  _359
REMARK  140  A    between atoms: _359  and  _360
REMARK  141  A    between atoms: _362  and  _364
REMARK  142  A    between atoms: _364  and  _365
REMARK  143  A    between atoms: _364  and  _367
REMARK  144  A    between atoms: _367  and  _368
REMARK                            x       y       z     vdW  Elec       q    Type
REMARK                         _______ _______ _______ _____ _____    ______ ____
ROOT
ATOM      1  CA  TRP A   1       5.806  21.747   7.222  0.00  0.00    +0.149 C 
ENDROOT
BRANCH   1   2
ATOM      2  C   TRP A   1       7.081  22.188   7.959  0.00  0.00    +0.239 C 
ATOM      3  O   TRP A   1       7.003  22.678   9.083  0.00  0.00    -0.274 OA
ATOM      4  N   LEU A   2       8.254  21.987   7.363  0.00  0.00    -0.298 N 
ATOM      5  H   LEU A   2       8.290  21.719   6.359  0.00  0.00    +0.150 HD
BRANCH   4   6
ATOM      6  CA  LEU A   2       9.498  22.145   8.129  0.00  0.00    +0.137 C 
BRANCH   6   7
ATOM      7  C   LEU A   2      10.240  23.429   7.825  0.00  0.00    +0.227 C 
ATOM      8  O   LEU A   2      10.942  23.555   6.803  0.00  0.00    -0.286 OA
ENDBRANCH   6   7
BRANCH   6   9
ATOM      9  CB  LEU A   2      10.423  20.927   7.968  0.00  0.00    +0.028 C 
BRANCH   9  10
ATOM     10  CG  LEU A   2      11.339  20.604   9.160  0.00  0.00    +0.002 C 
ATOM     11  CD2 LEU A   2      12.356  21.736   9.430  0.00  0.00    +0.000 C 
ATOM     12  CD1 LEU A   2      12.050  19.260   9.000  0.00  0.00    +0.000 C 
ENDBRANCH   9  10
ENDBRANCH   6   9
ENDBRANCH   4   6
ENDBRANCH   1   2
BRANCH   1  13
ATOM     13  N   TRP A   1       6.044  21.234   5.872  0.00  0.00    -0.238 NA
ATOM     14  H   TRP A   1       6.280  20.227   5.763  0.00  0.00    +0.142 HD
ENDBRANCH   1  13
BRANCH   1  15
ATOM     15  CB  TRP A   1       5.084  20.677   8.062  0.00  0.00    +0.054 C 
BRANCH  15  16
ATOM     16  CG  TRP A   1       5.851  19.389   8.129  0.00  0.00    -0.002 A 
ATOM     17  CD2 TRP A   1       6.897  19.063   9.057  0.00  0.00    +0.013 A 
ATOM     18  CE3 TRP A   1       7.490  19.744  10.133  0.00  0.00    +0.001 A 
ATOM     19  CZ3 TRP A   1       8.512  19.110  10.846  0.00  0.00    +0.000 A 
ATOM     20  CH2 TRP A   1       8.944  17.820  10.497  0.00  0.00    +0.001 A 
ATOM     21  CZ2 TRP A   1       8.379  17.132   9.450  0.00  0.00    +0.017 A 
ATOM     22  CE2 TRP A   1       7.354  17.765   8.736  0.00  0.00    +0.056 A 
ATOM     23  NE1 TRP A   1       6.619  17.319   7.668  0.00  0.00    -0.352 N 
ATOM     24  HE1 TRP A   1       6.720  16.391   7.209  0.00  0.00    +0.166 HD
ATOM     25  CD1 TRP A   1       5.722  18.304   7.301  0.00  0.00    +0.068 A 
ENDBRANCH  15  16
ENDBRANCH   1  15
TORSDOF 8
REMARK  Name = ../refined-set-2016/4re4/4re4_pocket.pdb
REMARK  144 active torsions:
REMARK  status: ('A' for Active; 'I' for Inactive)
REMARK    1  A    between atoms: _1  and  _3
REMARK    2  A    between atoms: _3  and  _4
REMARK    3  A    between atoms: _7  and  _9
REMARK    4  A    between atoms: _9  and  _10
REMARK    5  A    between atoms: _13  and  _15
REMARK    6  A    between atoms: _15  and  _16
REMARK    7  A    between atoms: _15  and  _18
REMARK    8  A    between atoms: _18  and  _19
REMARK    9  A    between atoms: _21  and  _23
REMARK   10  A    between atoms: _23  and  _24
REMARK   11  A    between atoms: _23  and  _26
REMARK   12  A    between atoms: _26  and  _27
REMARK   13  A    between atoms: _27  and  _28
REMARK   14  A    between atoms: _33  and  _35
REMARK   15  A    between atoms: _35  and  _36
REMARK   16  A    between atoms: _35  and  _38
REMARK   17  A    between atoms: _38  and  _39
REMARK   18  A    between atoms: _39  and  _40
REMARK   19  A    between atoms: _40  and  _41
REMARK   20  A    between atoms: _50  and  _52
REMARK   21  A    between atoms: _52  and  _53
REMARK   22  A    between atoms: _52  and  _55
REMARK   23  A    between atoms: _55  and  _56
REMARK   24  A    between atoms: _61  and  _63
REMARK   25  A    between atoms: _63  and  _64
REMARK   26  A    between atoms: _63  and  _66
REMARK   27  A    between atoms: _66  and  _67
REMARK   28  A    between atoms: _72  and  _74
REMARK   29  A    between atoms: _74  and  _75
REMARK   30  A    between atoms: _74  and  _77
REMARK   31  A    between atoms: _77  and  _78
REMARK   32  A    between atoms: _83  and  _84
REMARK   33  A    between atoms: _86  and  _88
REMARK   34  A    between atoms: _88  and  _89
REMARK   35  A    between atoms: _88  and  _91
REMARK   36  A    between atoms: _91  and  _92
REMARK   37  A    between atoms: _97  and  _99
REMARK   38  A    between atoms: _99  and  _100
REMARK   39  A    between atoms: _99  and  _102
REMARK   40  A    between atoms: _102  and  _103
REMARK   41  A    between atoms: _103  and  _104
REMARK   42  A    between atoms: _107  and  _109
REMARK   43  A    between atoms: _109  and  _110
REMARK   44  A    between atoms: _109  and  _112
REMARK   45  A    between atoms: _114  and  _116
REMARK   46  A    between atoms: _116  and  _117
REMARK   47  A    between atoms: _116  and  _119
REMARK   48  A    between atoms: _119  and  _120
REMARK   49  A    between atoms: _125  and  _127
REMARK   50  A    between atoms: _127  and  _128
REMARK   51  A    between atoms: _127  and  _130
REMARK   52  A    between atoms: _130  and  _131
REMARK   53  A    between atoms: _134  and  _136
REMARK   54  A    between atoms: _136  and  _137
REMARK   55  A    between atoms: _136  and  _139
REMARK   56  A    between atoms: _139  and  _140
REMARK   57  A    between atoms: _145  and  _147
REMARK   58  A    between atoms: _147  and  _148
REMARK   59  A    between atoms: _147  and  _150
REMARK   60  A    between atoms: _150  and  _151
REMARK   61  A    between atoms: _156  and  _158
REMARK   62  A    between atoms: _158  and  _159
REMARK   63  A    between atoms: _158  and  _161
REMARK   64  A    between atoms: _161  and  _162
REMARK   65  A    between atoms: _167  and  _168
REMARK   66  A    between atoms: _170  and  _172
REMARK   67  A    between atoms: _172  and  _173
REMARK   68  A    between atoms: _172  and  _175
REMARK   69  A    between atoms: _175  and  _176
REMARK   70  A    between atoms: _178  and  _180
REMARK   71  A    between atoms: _180  and  _181
REMARK   72  A    between atoms: _180  and  _183
REMARK   73  A    between atoms: _183  and  _184
REMARK   74  A    between atoms: _194  and  _196
REMARK   75  A    between atoms: _196  and  _197
REMARK   76  A    between atoms: _196  and  _199
REMARK   77  A    between atoms: _199  and  _200
REMARK   78  A    between atoms: _203  and  _205
REMARK   79  A    between atoms: _205  and  _206
REMARK   80  A    between atoms: _205  and  _208
REMARK   81  A    between atoms: _208  and  _209
REMARK   82  A    between atoms: _211  and  _213
REMARK   83  A    between atoms: _213  and  _214
REMARK   84  A    between atoms: _213  and  _216
REMARK   85  A    between atoms: _216  and  _217
REMARK   86  A    between atoms: _217  and  _218
REMARK   87  A    between atoms: _221  and  _223
REMARK   88  A    between atoms: _223  and  _224
REMARK   89  A    between atoms: _223  and  _226
REMARK   90  A    between atoms: _226  and  _227
REMARK   91  A    between atoms: _232  and  _234
REMARK   92  A    between atoms: _234  and  _235
REMARK   93  A    between atoms: _237  and  _239
REMARK   94  A    between atoms: _239  and  _240
REMARK   95  A    between atoms: _239  and  _242
REMARK   96  A    between atoms: _242  and  _243
REMARK   97  A    between atoms: _243  and  _244
REMARK   98  A    between atoms: _246  and  _248
REMARK   99  A    between atoms: _248  and  _249
REMARK  100  A    between atoms: _248  and  _251
REMARK  101  A    between atoms: _251  and  _252
REMARK  102  A    between atoms: _255  and  _257
REMARK  103  A    between atoms: _257  and  _258
REMARK  104  A    between atoms: _257  and  _260
REMARK  105  A    between atoms: _260  and  _261
REMARK  106  A    between atoms: _271  and  _273
REMARK  107  A    between atoms: _273  and  _274
REMARK  108  A    between atoms: _273  and  _276
REMARK  109  A    between atoms: _276  and  _277
REMARK  110  A    between atoms: _279  and  _281
REMARK  111  A    between atoms: _281  and  _282
REMARK  112  A    between atoms: _281  and  _284
REMARK  113  A    between atoms: _284  and  _285
REMARK  114  A    between atoms: _290  and  _292
REMARK  115  A    between atoms: _292  and  _293
REMARK  116  A    between atoms: _292  and  _295
REMARK  117  A    between atoms: _295  and  _296
REMARK  118  A    between atoms: _302  and  _304
REMARK  119  A    between atoms: _304  and  _305
REMARK  120  A    between atoms: _304  and  _307
REMARK  121  A    between atoms: _307  and  _308
REMARK  122  A    between atoms: _308  and  _309
REMARK  123  A    between atoms: _312  and  _314
REMARK  124  A    between atoms: _314  and  _315
REMARK  125  A    between atoms: _314  and  _317
REMARK  126  A    between atoms: _317  and  _318
REMARK  127  A    between atoms: _328  and  _330
REMARK  128  A    between atoms: _330  and  _331
REMARK  129  A    between atoms: _330  and  _333
REMARK  130  A    between atoms: _333  and  _334
REMARK  131  A    between atoms: _334  and  _335
REMARK  132  A    between atoms: _335  and  _336
REMARK  133  A    between atoms: _345  and  _347
REMARK  134  A    between atoms: _347  and  _348
REMARK  135  A    between atoms: _347  and  _350
REMARK  136  A    between atoms: _350  and  _351
REMARK  137  A    between atoms: _354  and  _356
REMARK  138  A    between atoms: _356  and  _357
REMARK  139  A    between atoms: _356  and  _359
REMARK  140  A    between atoms: _359  and  _360
REMARK  141  A    between atoms: _362  and  _364
REMARK  142  A    between atoms: _364  and  _365
REMARK  143  A    between atoms: _364  and  _367
REMARK  144  A    between atoms: _367  and  _368
REMARK                            x       y       z     vdW  Elec       q    Type
REMARK                         _______ _______ _______ _____ _____    ______ ____
ROOT
ATOM      1  CA  ASN A   3      15.395  16.996  15.863  0.00  0.00    +0.158 C 
ENDROOT
BRANCH   1   2
ATOM      2  C   ASN A   3      16.165  16.697  14.587  0.00  0.00    +0.241 C 
ATOM      3  O   ASN A   3      16.988  15.792  14.567  0.00  0.00    -0.273 OA
ATOM      4  N   GLY A   4      15.877  17.416  13.508  0.00  0.00    -0.295 N 
ATOM      5  H   GLY A   4      15.174  18.180  13.570  0.00  0.00    +0.150 HD
BRANCH   4   6
ATOM      6  CA  GLY A   4      16.535  17.145  12.241  0.00  0.00    +0.176 C 
BRANCH   6   7
ATOM      7  C   GLY A   4      15.849  17.832  11.082  0.00  0.00    +0.243 C 
ATOM      8  O   GLY A   4      14.879  18.561  11.271  0.00  0.00    -0.273 OA
ATOM      9  N   MET A   5      16.355  17.599   9.877  0.00  0.00    -0.297 N 
ATOM     10  H   MET A   5      17.203  17.004   9.782  0.00  0.00    +0.150 HD
BRANCH   9  11
ATOM     11  CA  MET A   5      15.742  18.162   8.695  0.00  0.00    +0.149 C 
BRANCH  11  12
ATOM     12  C   MET A   5      15.968  17.304   7.449  0.00  0.00    +0.241 C 
ATOM     13  O   MET A   5      16.827  16.405   7.430  0.00  0.00    -0.273 OA
ATOM     14  N   ASP A   6      15.193  17.591   6.406  0.00  0.00    -0.298 N 
ATOM     15  H   ASP A   6      14.540  18.399   6.453  0.00  0.00    +0.150 HD
BRANCH  14  16
ATOM     16  CA  ASP A   6      15.254  16.782   5.203  0.00  0.00    +0.148 C 
BRANCH  16  17
ATOM     17  C   ASP A   6      15.724  17.514   3.948  0.00  0.00    +0.227 C 
ATOM     18  O   ASP A   6      15.530  18.734   3.804  0.00  0.00    -0.286 OA
ENDBRANCH  16  17
BRANCH  16  19
ATOM     19  CB  ASP A   6      13.934  16.023   4.973  0.00  0.00    +0.142 C 
BRANCH  19  20
ATOM     20  CG  ASP A   6      12.735  16.944   4.717  0.00  0.00    +0.367 C 
ATOM     21  OD2 ASP A   6      12.710  18.108   5.192  0.00  0.00    -0.246 OA
ATOM     22  OD1 ASP A   6      11.788  16.474   4.036  0.00  0.00    -0.246 OA
ENDBRANCH  19  20
ENDBRANCH  16  19
ENDBRANCH  14  16
ENDBRANCH  11  12
BRANCH  11  23
ATOM     23  CB  MET A   5      16.255  19.580   8.464  0.00  0.00    +0.041 C 
BRANCH  23  24
ATOM     24  CG  MET A   5      17.749  19.670   8.414  0.00  0.00    +0.060 C 
BRANCH  24  25
ATOM     25  SD  MET A   5      18.231  20.934   7.259  0.00  0.00    -0.139 S 
ATOM     26  CE  MET A   5      18.083  20.002   5.734  0.00  0.00    +0.069 C 
ENDBRANCH  24  25
ENDBRANCH  23  24
ENDBRANCH  11  23
ENDBRANCH   9  11
ENDBRANCH   6   7
ENDBRANCH   4   6
ENDBRANCH   1   2
BRANCH   1  29
ATOM     27  C   GLU A   2      14.183  15.515  17.385  0.00  0.00    +0.241 C 
ATOM     28  O   GLU A   2      13.552  16.446  17.884  0.00  0.00    -0.273 OA
ATOM     29  N   ASN A   3      15.090  15.679  16.427  0.00  0.00    -0.297 N 
ATOM     30  H   ASN A   3      15.599  14.846  16.067  0.00  0.00    +0.150 HD
BRANCH  27  31
ATOM     31  CA  GLU A   2      13.901  14.088  17.809  0.00  0.00    +0.149 C 
BRANCH  31  34
ATOM     32  C   SER A   1      13.928  12.966  20.015  0.00  0.00    +0.241 C 
ATOM     33  O   SER A   1      14.060  11.832  19.533  0.00  0.00    -0.274 OA
ATOM     34  N   GLU A   2      13.762  14.067  19.278  0.00  0.00    -0.297 N 
ATOM     35  H   GLU A   2      13.523  14.955  19.764  0.00  0.00    +0.150 HD
BRANCH  32  36
ATOM     36  CA  SER A   1      13.937  13.137  21.529  0.00  0.00    +0.174 C 
BRANCH  36  37
ATOM     37  N   SER A   1      13.983  14.498  22.041  0.00  0.00    -0.236 NA
ATOM     38  H   SER A   1      13.092  15.017  22.174  0.00  0.00    +0.142 HD
ENDBRANCH  36  37
BRANCH  36  39
ATOM     39  CB  SER A   1      12.751  12.387  22.142  0.00  0.00    +0.163 C 
BRANCH  39  40
ATOM     40  OG  SER A   1      11.583  13.189  22.150  0.00  0.00    -0.380 OA
ATOM     41  H   SER A   1      11.351  13.441  21.221  0.00  0.00    +0.211 HD
ENDBRANCH  39  40
ENDBRANCH  36  39
ENDBRANCH  32  36
ENDBRANCH  31  34
BRANCH  31  42
ATOM     42  CB  GLU A   2      12.611  13.661  17.092  0.00  0.00    +0.041 C 
BRANCH  42  43
ATOM     43  CG  GLU A   2      12.380  12.171  16.950  0.00  0.00    +0.116 C 
BRANCH  43  44
ATOM     44  CD  GLU A   2      11.139  11.827  16.118  0.00  0.00    +0.365 C 
ATOM     45  OE2 GLU A   2      10.550  10.738  16.372  0.00  0.00    -0.246 OA
ATOM     46  OE1 GLU A   2      10.766  12.623  15.193  0.00  0.00    -0.246 OA
ENDBRANCH  43  44
ENDBRANCH  42  43
ENDBRANCH  31  42
ENDBRANCH  27  31
ENDBRANCH   1  29
BRANCH   1  47
ATOM     47  CB  ASN A   3      16.223  17.816  16.878  0.00  0.00    +0.114 C 
BRANCH  47  48
ATOM     48  CG  ASN A   3      16.517  19.254  16.427  0.00  0.00    +0.222 C 
ATOM     49  OD1 ASN A   3      17.670  19.678  16.420  0.00  0.00    -0.275 OA
ATOM     50  ND2 ASN A   3      15.484  20.008  16.096  0.00  0.00    -0.329 N 
ATOM     51 HD21 ASN A   3      14.523  19.611  16.115  0.00  0.00    +0.145 HD
ATOM     52 HD22 ASN A   3      15.632  20.999  15.817  0.00  0.00    +0.145 HD
ENDBRANCH  47  48
ENDBRANCH   1  47
TORSDOF 24
REMARK  Name = ../refined-set-2016/4re4/4re4_pocket.pdb
REMARK  144 active torsions:
REMARK  status: ('A' for Active; 'I' for Inactive)
REMARK    1  A    between atoms: _1  and  _3
REMARK    2  A    between atoms: _3  and  _4
REMARK    3  A    between atoms: _7  and  _9
REMARK    4  A    between atoms: _9  and  _10
REMARK    5  A    between atoms: _13  and  _15
REMARK    6  A    between atoms: _15  and  _16
REMARK    7  A    between atoms: _15  and  _18
REMARK    8  A    between atoms: _18  and  _19
REMARK    9  A    between atoms: _21  and  _23
REMARK   10  A    between atoms: _23  and  _24
REMARK   11  A    between atoms: _23  and  _26
REMARK   12  A    between atoms: _26  and  _27
REMARK   13  A    between atoms: _27  and  _28
REMARK   14  A    between atoms: _33  and  _35
REMARK   15  A    between atoms: _35  and  _36
REMARK   16  A    between atoms: _35  and  _38
REMARK   17  A    between atoms: _38  and  _39
REMARK   18  A    between atoms: _39  and  _40
REMARK   19  A    between atoms: _40  and  _41
REMARK   20  A    between atoms: _50  and  _52
REMARK   21  A    between atoms: _52  and  _53
REMARK   22  A    between atoms: _52  and  _55
REMARK   23  A    between atoms: _55  and  _56
REMARK   24  A    between atoms: _61  and  _63
REMARK   25  A    between atoms: _63  and  _64
REMARK   26  A    between atoms: _63  and  _66
REMARK   27  A    between atoms: _66  and  _67
REMARK   28  A    between atoms: _72  and  _74
REMARK   29  A    between atoms: _74  and  _75
REMARK   30  A    between atoms: _74  and  _77
REMARK   31  A    between atoms: _77  and  _78
REMARK   32  A    between atoms: _83  and  _84
REMARK   33  A    between atoms: _86  and  _88
REMARK   34  A    between atoms: _88  and  _89
REMARK   35  A    between atoms: _88  and  _91
REMARK   36  A    between atoms: _91  and  _92
REMARK   37  A    between atoms: _97  and  _99
REMARK   38  A    between atoms: _99  and  _100
REMARK   39  A    between atoms: _99  and  _102
REMARK   40  A    between atoms: _102  and  _103
REMARK   41  A    between atoms: _103  and  _104
REMARK   42  A    between atoms: _107  and  _109
REMARK   43  A    between atoms: _109  and  _110
REMARK   44  A    between atoms: _109  and  _112
REMARK   45  A    between atoms: _114  and  _116
REMARK   46  A    between atoms: _116  and  _117
REMARK   47  A    between atoms: _116  and  _119
REMARK   48  A    between atoms: _119  and  _120
REMARK   49  A    between atoms: _125  and  _127
REMARK   50  A    between atoms: _127  and  _128
REMARK   51  A    between atoms: _127  and  _130
REMARK   52  A    between atoms: _130  and  _131
REMARK   53  A    between atoms: _134  and  _136
REMARK   54  A    between atoms: _136  and  _137
REMARK   55  A    between atoms: _136  and  _139
REMARK   56  A    between atoms: _139  and  _140
REMARK   57  A    between atoms: _145  and  _147
REMARK   58  A    between atoms: _147  and  _148
REMARK   59  A    between atoms: _147  and  _150
REMARK   60  A    between atoms: _150  and  _151
REMARK   61  A    between atoms: _156  and  _158
REMARK   62  A    between atoms: _158  and  _159
REMARK   63  A    between atoms: _158  and  _161
REMARK   64  A    between atoms: _161  and  _162
REMARK   65  A    between atoms: _167  and  _168
REMARK   66  A    between atoms: _170  and  _172
REMARK   67  A    between atoms: _172  and  _173
REMARK   68  A    between atoms: _172  and  _175
REMARK   69  A    between atoms: _175  and  _176
REMARK   70  A    between atoms: _178  and  _180
REMARK   71  A    between atoms: _180  and  _181
REMARK   72  A    between atoms: _180  and  _183
REMARK   73  A    between atoms: _183  and  _184
REMARK   74  A    between atoms: _194  and  _196
REMARK   75  A    between atoms: _196  and  _197
REMARK   76  A    between atoms: _196  and  _199
REMARK   77  A    between atoms: _199  and  _200
REMARK   78  A    between atoms: _203  and  _205
REMARK   79  A    between atoms: _205  and  _206
REMARK   80  A    between atoms: _205  and  _208
REMARK   81  A    between atoms: _208  and  _209
REMARK   82  A    between atoms: _211  and  _213
REMARK   83  A    between atoms: _213  and  _214
REMARK   84  A    between atoms: _213  and  _216
REMARK   85  A    between atoms: _216  and  _217
REMARK   86  A    between atoms: _217  and  _218
REMARK   87  A    between atoms: _221  and  _223
REMARK   88  A    between atoms: _223  and  _224
REMARK   89  A    between atoms: _223  and  _226
REMARK   90  A    between atoms: _226  and  _227
REMARK   91  A    between atoms: _232  and  _234
REMARK   92  A    between atoms: _234  and  _235
REMARK   93  A    between atoms: _237  and  _239
REMARK   94  A    between atoms: _239  and  _240
REMARK   95  A    between atoms: _239  and  _242
REMARK   96  A    between atoms: _242  and  _243
REMARK   97  A    between atoms: _243  and  _244
REMARK   98  A    between atoms: _246  and  _248
REMARK   99  A    between atoms: _248  and  _249
REMARK  100  A    between atoms: _248  and  _251
REMARK  101  A    between atoms: _251  and  _252
REMARK  102  A    between atoms: _255  and  _257
REMARK  103  A    between atoms: _257  and  _258
REMARK  104  A    between atoms: _257  and  _260
REMARK  105  A    between atoms: _260  and  _261
REMARK  106  A    between atoms: _271  and  _273
REMARK  107  A    between atoms: _273  and  _274
REMARK  108  A    between atoms: _273  and  _276
REMARK  109  A    between atoms: _276  and  _277
REMARK  110  A    between atoms: _279  and  _281
REMARK  111  A    between atoms: _281  and  _282
REMARK  112  A    between atoms: _281  and  _284
REMARK  113  A    between atoms: _284  and  _285
REMARK  114  A    between atoms: _290  and  _292
REMARK  115  A    between atoms: _292  and  _293
REMARK  116  A    between atoms: _292  and  _295
REMARK  117  A    between atoms: _295  and  _296
REMARK  118  A    between atoms: _302  and  _304
REMARK  119  A    between atoms: _304  and  _305
REMARK  120  A    between atoms: _304  and  _307
REMARK  121  A    between atoms: _307  and  _308
REMARK  122  A    between atoms: _308  and  _309
REMARK  123  A    between atoms: _312  and  _314
REMARK  124  A    between atoms: _314  and  _315
REMARK  125  A    between atoms: _314  and  _317
REMARK  126  A    between atoms: _317  and  _318
REMARK  127  A    between atoms: _328  and  _330
REMARK  128  A    between atoms: _330  and  _331
REMARK  129  A    between atoms: _330  and  _333
REMARK  130  A    between atoms: _333  and  _334
REMARK  131  A    between atoms: _334  and  _335
REMARK  132  A    between atoms: _335  and  _336
REMARK  133  A    between atoms: _345  and  _347
REMARK  134  A    between atoms: _347  and  _348
REMARK  135  A    between atoms: _347  and  _350
REMARK  136  A    between atoms: _350  and  _351
REMARK  137  A    between atoms: _354  and  _356
REMARK  138  A    between atoms: _356  and  _357
REMARK  139  A    between atoms: _356  and  _359
REMARK  140  A    between atoms: _359  and  _360
REMARK  141  A    between atoms: _362  and  _364
REMARK  142  A    between atoms: _364  and  _365
REMARK  143  A    between atoms: _364  and  _367
REMARK  144  A    between atoms: _367  and  _368
REMARK                            x       y       z     vdW  Elec       q    Type
REMARK                         _______ _______ _______ _____ _____    ______ ____
ROOT
ATOM      1  CA  TRP A   1      16.270  12.235  13.536  0.00  0.00    +0.149 C 
ENDROOT
BRANCH   1   2
ATOM      2  C   TRP A   1      16.893  12.537  12.160  0.00  0.00    +0.239 C 
ATOM      3  O   TRP A   1      16.840  13.676  11.710  0.00  0.00    -0.274 OA
ATOM      4  N   SER A   2      17.494  11.565  11.473  0.00  0.00    -0.296 N 
ATOM      5  H   SER A   2      17.918  11.840  10.564  0.00  0.00    +0.150 HD
BRANCH   4   6
ATOM      6  CA  SER A   2      17.627  10.161  11.846  0.00  0.00    +0.166 C 
BRANCH   6   7
ATOM      7  CB  SER A   2      19.047   9.727  11.429  0.00  0.00    +0.229 C 
ATOM      8  OG  SER A   2      19.752  10.494  10.758  0.00  0.00    -0.286 OA
ENDBRANCH   6   7
BRANCH   6   9
ATOM      9  C   SER A   2      16.584   9.354  11.057  0.00  0.00    +0.165 C 
BRANCH   9  10
ATOM     10  O   SER A   2      16.486   8.007  11.514  0.00  0.00    -0.380 OA
ATOM     11  H   SER A   2      16.222   8.002  12.468  0.00  0.00    +0.211 HD
ENDBRANCH   9  10
ENDBRANCH   6   9
ENDBRANCH   4   6
ENDBRANCH   1   2
BRANCH   1  12
ATOM     12  N   TRP A   1      17.022  12.989  14.525  0.00  0.00    -0.238 NA
ATOM     13  H   TRP A   1      16.817  13.999  14.662  0.00  0.00    +0.142 HD
ENDBRANCH   1  12
BRANCH   1  14
ATOM     14  CB  TRP A   1      14.779  12.610  13.545  0.00  0.00    +0.054 C 
BRANCH  14  15
ATOM     15  CG  TRP A   1      14.004  11.714  12.608  0.00  0.00    -0.002 A 
ATOM     16  CD2 TRP A   1      13.363  10.480  12.940  0.00  0.00    +0.013 A 
ATOM     17  CE3 TRP A   1      13.189   9.768  14.133  0.00  0.00    +0.001 A 
ATOM     18  CZ3 TRP A   1      12.495   8.569  14.095  0.00  0.00    +0.000 A 
ATOM     19  CH2 TRP A   1      11.964   8.077  12.895  0.00  0.00    +0.001 A 
ATOM     20  CZ2 TRP A   1      12.131   8.745  11.709  0.00  0.00    +0.017 A 
ATOM     21  CE2 TRP A   1      12.833   9.951  11.745  0.00  0.00    +0.056 A 
ATOM     22  NE1 TRP A   1      13.138  10.827  10.731  0.00  0.00    -0.352 N 
ATOM     23  HE1 TRP A   1      12.882  10.708   9.730  0.00  0.00    +0.166 HD
ATOM     24  CD1 TRP A   1      13.835  11.884  11.256  0.00  0.00    +0.068 A 
ENDBRANCH  14  15
ENDBRANCH   1  14
TORSDOF 8
REMARK  Name = ../refined-set-2016/4re4/4re4_pocket.pdb
REMARK  144 active torsions:
REMARK  status: ('A' for Active; 'I' for Inactive)
REMARK    1  A    between atoms: _1  and  _3
REMARK    2  A    between atoms: _3  and  _4
REMARK    3  A    between atoms: _7  and  _9
REMARK    4  A    between atoms: _9  and  _10
REMARK    5  A    between atoms: _13  and  _15
REMARK    6  A    between atoms: _15  and  _16
REMARK    7  A    between atoms: _15  and  _18
REMARK    8  A    between atoms: _18  and  _19
REMARK    9  A    between atoms: _21  and  _23
REMARK   10  A    between atoms: _23  and  _24
REMARK   11  A    between atoms: _23  and  _26
REMARK   12  A    between atoms: _26  and  _27
REMARK   13  A    between atoms: _27  and  _28
REMARK   14  A    between atoms: _33  and  _35
REMARK   15  A    between atoms: _35  and  _36
REMARK   16  A    between atoms: _35  and  _38
REMARK   17  A    between atoms: _38  and  _39
REMARK   18  A    between atoms: _39  and  _40
REMARK   19  A    between atoms: _40  and  _41
REMARK   20  A    between atoms: _50  and  _52
REMARK   21  A    between atoms: _52  and  _53
REMARK   22  A    between atoms: _52  and  _55
REMARK   23  A    between atoms: _55  and  _56
REMARK   24  A    between atoms: _61  and  _63
REMARK   25  A    between atoms: _63  and  _64
REMARK   26  A    between atoms: _63  and  _66
REMARK   27  A    between atoms: _66  and  _67
REMARK   28  A    between atoms: _72  and  _74
REMARK   29  A    between atoms: _74  and  _75
REMARK   30  A    between atoms: _74  and  _77
REMARK   31  A    between atoms: _77  and  _78
REMARK   32  A    between atoms: _83  and  _84
REMARK   33  A    between atoms: _86  and  _88
REMARK   34  A    between atoms: _88  and  _89
REMARK   35  A    between atoms: _88  and  _91
REMARK   36  A    between atoms: _91  and  _92
REMARK   37  A    between atoms: _97  and  _99
REMARK   38  A    between atoms: _99  and  _100
REMARK   39  A    between atoms: _99  and  _102
REMARK   40  A    between atoms: _102  and  _103
REMARK   41  A    between atoms: _103  and  _104
REMARK   42  A    between atoms: _107  and  _109
REMARK   43  A    between atoms: _109  and  _110
REMARK   44  A    between atoms: _109  and  _112
REMARK   45  A    between atoms: _114  and  _116
REMARK   46  A    between atoms: _116  and  _117
REMARK   47  A    between atoms: _116  and  _119
REMARK   48  A    between atoms: _119  and  _120
REMARK   49  A    between atoms: _125  and  _127
REMARK   50  A    between atoms: _127  and  _128
REMARK   51  A    between atoms: _127  and  _130
REMARK   52  A    between atoms: _130  and  _131
REMARK   53  A    between atoms: _134  and  _136
REMARK   54  A    between atoms: _136  and  _137
REMARK   55  A    between atoms: _136  and  _139
REMARK   56  A    between atoms: _139  and  _140
REMARK   57  A    between atoms: _145  and  _147
REMARK   58  A    between atoms: _147  and  _148
REMARK   59  A    between atoms: _147  and  _150
REMARK   60  A    between atoms: _150  and  _151
REMARK   61  A    between atoms: _156  and  _158
REMARK   62  A    between atoms: _158  and  _159
REMARK   63  A    between atoms: _158  and  _161
REMARK   64  A    between atoms: _161  and  _162
REMARK   65  A    between atoms: _167  and  _168
REMARK   66  A    between atoms: _170  and  _172
REMARK   67  A    between atoms: _172  and  _173
REMARK   68  A    between atoms: _172  and  _175
REMARK   69  A    between atoms: _175  and  _176
REMARK   70  A    between atoms: _178  and  _180
REMARK   71  A    between atoms: _180  and  _181
REMARK   72  A    between atoms: _180  and  _183
REMARK   73  A    between atoms: _183  and  _184
REMARK   74  A    between atoms: _194  and  _196
REMARK   75  A    between atoms: _196  and  _197
REMARK   76  A    between atoms: _196  and  _199
REMARK   77  A    between atoms: _199  and  _200
REMARK   78  A    between atoms: _203  and  _205
REMARK   79  A    between atoms: _205  and  _206
REMARK   80  A    between atoms: _205  and  _208
REMARK   81  A    between atoms: _208  and  _209
REMARK   82  A    between atoms: _211  and  _213
REMARK   83  A    between atoms: _213  and  _214
REMARK   84  A    between atoms: _213  and  _216
REMARK   85  A    between atoms: _216  and  _217
REMARK   86  A    between atoms: _217  and  _218
REMARK   87  A    between atoms: _221  and  _223
REMARK   88  A    between atoms: _223  and  _224
REMARK   89  A    between atoms: _223  and  _226
REMARK   90  A    between atoms: _226  and  _227
REMARK   91  A    between atoms: _232  and  _234
REMARK   92  A    between atoms: _234  and  _235
REMARK   93  A    between atoms: _237  and  _239
REMARK   94  A    between atoms: _239  and  _240
REMARK   95  A    between atoms: _239  and  _242
REMARK   96  A    between atoms: _242  and  _243
REMARK   97  A    between atoms: _243  and  _244
REMARK   98  A    between atoms: _246  and  _248
REMARK   99  A    between atoms: _248  and  _249
REMARK  100  A    between atoms: _248  and  _251
REMARK  101  A    between atoms: _251  and  _252
REMARK  102  A    between atoms: _255  and  _257
REMARK  103  A    between atoms: _257  and  _258
REMARK  104  A    between atoms: _257  and  _260
REMARK  105  A    between atoms: _260  and  _261
REMARK  106  A    between atoms: _271  and  _273
REMARK  107  A    between atoms: _273  and  _274
REMARK  108  A    between atoms: _273  and  _276
REMARK  109  A    between atoms: _276  and  _277
REMARK  110  A    between atoms: _279  and  _281
REMARK  111  A    between atoms: _281  and  _282
REMARK  112  A    between atoms: _281  and  _284
REMARK  113  A    between atoms: _284  and  _285
REMARK  114  A    between atoms: _290  and  _292
REMARK  115  A    between atoms: _292  and  _293
REMARK  116  A    between atoms: _292  and  _295
REMARK  117  A    between atoms: _295  and  _296
REMARK  118  A    between atoms: _302  and  _304
REMARK  119  A    between atoms: _304  and  _305
REMARK  120  A    between atoms: _304  and  _307
REMARK  121  A    between atoms: _307  and  _308
REMARK  122  A    between atoms: _308  and  _309
REMARK  123  A    between atoms: _312  and  _314
REMARK  124  A    between atoms: _314  and  _315
REMARK  125  A    between atoms: _314  and  _317
REMARK  126  A    between atoms: _317  and  _318
REMARK  127  A    between atoms: _328  and  _330
REMARK  128  A    between atoms: _330  and  _331
REMARK  129  A    between atoms: _330  and  _333
REMARK  130  A    between atoms: _333  and  _334
REMARK  131  A    between atoms: _334  and  _335
REMARK  132  A    between atoms: _335  and  _336
REMARK  133  A    between atoms: _345  and  _347
REMARK  134  A    between atoms: _347  and  _348
REMARK  135  A    between atoms: _347  and  _350
REMARK  136  A    between atoms: _350  and  _351
REMARK  137  A    between atoms: _354  and  _356
REMARK  138  A    between atoms: _356  and  _357
REMARK  139  A    between atoms: _356  and  _359
REMARK  140  A    between atoms: _359  and  _360
REMARK  141  A    between atoms: _362  and  _364
REMARK  142  A    between atoms: _364  and  _365
REMARK  143  A    between atoms: _364  and  _367
REMARK  144  A    between atoms: _367  and  _368
REMARK                            x       y       z     vdW  Elec       q    Type
REMARK                         _______ _______ _______ _____ _____    ______ ____
ROOT
ATOM      1  CA  TRP A   4       5.544   7.843   5.508  0.00  0.00    +0.153 C 
ENDROOT
BRANCH   1   2
ATOM      2  C   TRP A   4       4.909   8.246   4.171  0.00  0.00    +0.241 C 
ATOM      3  N   ARG A   5       4.004   9.233   4.168  0.00  0.00    -0.297 N 
ATOM      4  H   ARG A   5       3.750   9.697   5.064  0.00  0.00    +0.150 HD
ATOM      5  O   TRP A   4       5.259   7.662   3.144  0.00  0.00    -0.273 OA
BRANCH   3   6
ATOM      6  CA  ARG A   5       3.360   9.674   2.913  0.00  0.00    +0.149 C 
BRANCH   6   7
ATOM      7  C   ARG A   5       4.321  10.236   1.864  0.00  0.00    +0.241 C 
ATOM      8  N   LEU A   6       5.476  10.738   2.301  0.00  0.00    -0.298 N 
ATOM      9  H   LEU A   6       5.669  10.776   3.322  0.00  0.00    +0.150 HD
ATOM     10  O   ARG A   5       4.007  10.231   0.667  0.00  0.00    -0.273 OA
BRANCH   8  11
ATOM     11  CA  LEU A   6       6.476  11.237   1.351  0.00  0.00    +0.137 C 
BRANCH  11  12
ATOM     12  C   LEU A   6       7.337  10.116   0.768  0.00  0.00    +0.227 C 
ATOM     13  O   LEU A   6       8.065  10.329  -0.211  0.00  0.00    -0.286 OA
ENDBRANCH  11  12
BRANCH  11  14
ATOM     14  CB  LEU A   6       7.351  12.321   1.980  0.00  0.00    +0.028 C 
BRANCH  14  15
ATOM     15  CG  LEU A   6       6.672  13.549   2.607  0.00  0.00    +0.002 C 
ATOM     16  CD2 LEU A   6       7.744  14.585   2.977  0.00  0.00    +0.000 C 
ATOM     17  CD1 LEU A   6       5.574  14.181   1.716  0.00  0.00    +0.000 C 
ENDBRANCH  14  15
ENDBRANCH  11  14
ENDBRANCH   8  11
ENDBRANCH   6   7
BRANCH   6  18
ATOM     18  CB  ARG A   5       2.223  10.668   3.166  0.00  0.00    +0.033 C 
BRANCH  18  19
ATOM     19  CG  ARG A   5       0.983  10.057   3.802  0.00  0.00    +0.045 C 
BRANCH  19  20
ATOM     20  CD  ARG A   5       0.300   9.008   2.927  0.00  0.00    +0.174 C 
BRANCH  20  21
ATOM     21  NE  ARG A   5      -0.296   9.549   1.701  0.00  0.00    -0.265 N 
ATOM     22  CZ  ARG A   5      -1.546  10.005   1.604  0.00  0.00    +0.342 C 
ATOM     23  NH2 ARG A   5      -2.346  10.033   2.665  0.00  0.00    -0.292 N 
ATOM     24 HH21 ARG A   5      -2.000   9.697   3.586  0.00  0.00    +0.255 HD
ATOM     25 HH22 ARG A   5      -3.318  10.391   2.574  0.00  0.00    +0.255 HD
ATOM     26  NH1 ARG A   5      -1.994  10.462   0.445  0.00  0.00    -0.292 N 
ATOM     27 HH11 ARG A   5      -2.968  10.818   0.368  0.00  0.00    +0.255 HD
ATOM     28 HH12 ARG A   5      -1.372  10.465  -0.388  0.00  0.00    +0.255 HD
ATOM     29  HE  ARG A   5       0.297   9.579   0.847  0.00  0.00    +0.259 HD
ENDBRANCH  20  21
ENDBRANCH  19  20
ENDBRANCH  18  19
ENDBRANCH   6  18
ENDBRANCH   3   6
ENDBRANCH   1   2
BRANCH   1  31
ATOM     30  C   GLU A   3       7.688   9.053   5.088  0.00  0.00    +0.241 C 
ATOM     31  N   TRP A   4       7.016   7.987   5.532  0.00  0.00    -0.297 N 
ATOM     32  H   TRP A   4       7.570   7.199   5.924  0.00  0.00    +0.150 HD
ATOM     33  O   GLU A   3       7.148  10.048   4.587  0.00  0.00    -0.273 OA
BRANCH  30  34
ATOM     34  CA  GLU A   3       9.216   8.948   5.245  0.00  0.00    +0.149 C 
BRANCH  34  37
ATOM     35  C   PHE A   2      10.091   6.695   5.221  0.00  0.00    +0.241 C 
ATOM     36  O   PHE A   2       9.864   6.534   6.422  0.00  0.00    -0.273 OA
ATOM     37  N   GLU A   3       9.740   7.790   4.558  0.00  0.00    -0.297 N 
ATOM     38  H   GLU A   3       9.844   7.815   3.524  0.00  0.00    +0.150 HD
BRANCH  35  39
ATOM     39  CA  PHE A   2      10.830   5.626   4.410  0.00  0.00    +0.153 C 
BRANCH  39  41
ATOM     40  C   ASN A   1      13.115   6.450   4.702  0.00  0.00    +0.239 C 
ATOM     41  N   PHE A   2      12.189   5.521   4.937  0.00  0.00    -0.297 N 
ATOM     42  H   PHE A   2      12.442   4.694   5.515  0.00  0.00    +0.150 HD
ATOM     43  O   ASN A   1      12.906   7.455   4.001  0.00  0.00    -0.274 OA
BRANCH  40  44
ATOM     44  CA  ASN A   1      14.502   6.186   5.306  0.00  0.00    +0.154 C 
BRANCH  44  45
ATOM     45  N   ASN A   1      15.441   7.282   5.145  0.00  0.00    -0.238 NA
ATOM     46  H   ASN A   1      15.093   8.262   5.130  0.00  0.00    +0.142 HD
ENDBRANCH  44  45
BRANCH  44  47
ATOM     47  CB  ASN A   1      14.458   5.687   6.780  0.00  0.00    +0.111 C 
BRANCH  47  48
ATOM     48  CG  ASN A   1      13.993   6.750   7.765  0.00  0.00    +0.221 C 
ATOM     49  ND2 ASN A   1      14.809   7.016   8.778  0.00  0.00    -0.329 N 
ATOM     50 HD21 ASN A   1      14.533   7.714   9.498  0.00  0.00    +0.145 HD
ATOM     51 HD22 ASN A   1      15.724   6.527   8.851  0.00  0.00    +0.145 HD
ATOM     52  OD1 ASN A   1      12.906   7.299   7.634  0.00  0.00    -0.275 OA
ENDBRANCH  47  48
ENDBRANCH  44  47
ENDBRANCH  40  44
ENDBRANCH  39  41
BRANCH  39  53
ATOM     53  CB  PHE A   2      10.136   4.259   4.474  0.00  0.00    +0.055 C 
BRANCH  53  54
ATOM     54  CG  PHE A   2       8.660   4.286   4.122  0.00  0.00    -0.020 A 
ATOM     55  CD2 PHE A   2       7.689   4.260   5.129  0.00  0.00    -0.004 A 
ATOM     56  CE2 PHE A   2       6.340   4.255   4.825  0.00  0.00    -0.000 A 
ATOM     57  CZ  PHE A   2       5.936   4.267   3.500  0.00  0.00    -0.000 A 
ATOM     58  CE1 PHE A   2       6.893   4.278   2.481  0.00  0.00    -0.000 A 
ATOM     59  CD1 PHE A   2       8.246   4.278   2.799  0.00  0.00    -0.004 A 
ENDBRANCH  53  54
ENDBRANCH  39  53
ENDBRANCH  35  39
ENDBRANCH  34  37
BRANCH  34  60
ATOM     60  CB  GLU A   3      10.015  10.201   4.813  0.00  0.00    +0.041 C 
BRANCH  60  61
ATOM     61  CG  GLU A   3       9.598  11.543   5.417  0.00  0.00    +0.116 C 
BRANCH  61  62
ATOM     62  CD  GLU A   3       9.444  11.565   6.933  0.00  0.00    +0.365 C 
ATOM     63  OE2 GLU A   3      10.156  10.821   7.649  0.00  0.00    -0.246 OA
ATOM     64  OE1 GLU A   3       8.609  12.370   7.415  0.00  0.00    -0.246 OA
ENDBRANCH  61  62
ENDBRANCH  60  61
ENDBRANCH  34  60
ENDBRANCH  30  34
ENDBRANCH   1  31
BRANCH   1  65
ATOM     65  CB  TRP A   4       4.895   8.532   6.714  0.00  0.00    +0.057 C 
BRANCH  65  66
ATOM     66  CG  TRP A   4       5.546   8.113   8.005  0.00  0.00    -0.002 A 
ATOM     67  CD1 TRP A   4       6.396   8.860   8.784  0.00  0.00    +0.068 A 
ATOM     68  NE1 TRP A   4       6.800   8.134   9.874  0.00  0.00    -0.352 N 
ATOM     69  HE1 TRP A   4       7.429   8.476  10.628  0.00  0.00    +0.166 HD
ATOM     70  CE2 TRP A   4       6.239   6.882   9.808  0.00  0.00    +0.056 A 
ATOM     71  CZ2 TRP A   4       6.368   5.791  10.673  0.00  0.00    +0.017 A 
ATOM     72  CH2 TRP A   4       5.692   4.641  10.350  0.00  0.00    +0.001 A 
ATOM     73  CZ3 TRP A   4       4.891   4.560   9.186  0.00  0.00    +0.000 A 
ATOM     74  CE3 TRP A   4       4.764   5.642   8.327  0.00  0.00    +0.001 A 
ATOM     75  CD2 TRP A   4       5.453   6.829   8.632  0.00  0.00    +0.013 A 
ENDBRANCH  65  66
ENDBRANCH   1  65
TORSDOF 27
REMARK  Name = ../refined-set-2016/4re4/4re4_pocket.pdb
REMARK  144 active torsions:
REMARK  status: ('A' for Active; 'I' for Inactive)
REMARK    1  A    between atoms: _1  and  _3
REMARK    2  A    between atoms: _3  and  _4
REMARK    3  A    between atoms: _7  and  _9
REMARK    4  A    between atoms: _9  and  _10
REMARK    5  A    between atoms: _13  and  _15
REMARK    6  A    between atoms: _15  and  _16
REMARK    7  A    between atoms: _15  and  _18
REMARK    8  A    between atoms: _18  and  _19
REMARK    9  A    between atoms: _21  and  _23
REMARK   10  A    between atoms: _23  and  _24
REMARK   11  A    between atoms: _23  and  _26
REMARK   12  A    between atoms: _26  and  _27
REMARK   13  A    between atoms: _27  and  _28
REMARK   14  A    between atoms: _33  and  _35
REMARK   15  A    between atoms: _35  and  _36
REMARK   16  A    between atoms: _35  and  _38
REMARK   17  A    between atoms: _38  and  _39
REMARK   18  A    between atoms: _39  and  _40
REMARK   19  A    between atoms: _40  and  _41
REMARK   20  A    between atoms: _50  and  _52
REMARK   21  A    between atoms: _52  and  _53
REMARK   22  A    between atoms: _52  and  _55
REMARK   23  A    between atoms: _55  and  _56
REMARK   24  A    between atoms: _61  and  _63
REMARK   25  A    between atoms: _63  and  _64
REMARK   26  A    between atoms: _63  and  _66
REMARK   27  A    between atoms: _66  and  _67
REMARK   28  A    between atoms: _72  and  _74
REMARK   29  A    between atoms: _74  and  _75
REMARK   30  A    between atoms: _74  and  _77
REMARK   31  A    between atoms: _77  and  _78
REMARK   32  A    between atoms: _83  and  _84
REMARK   33  A    between atoms: _86  and  _88
REMARK   34  A    between atoms: _88  and  _89
REMARK   35  A    between atoms: _88  and  _91
REMARK   36  A    between atoms: _91  and  _92
REMARK   37  A    between atoms: _97  and  _99
REMARK   38  A    between atoms: _99  and  _100
REMARK   39  A    between atoms: _99  and  _102
REMARK   40  A    between atoms: _102  and  _103
REMARK   41  A    between atoms: _103  and  _104
REMARK   42  A    between atoms: _107  and  _109
REMARK   43  A    between atoms: _109  and  _110
REMARK   44  A    between atoms: _109  and  _112
REMARK   45  A    between atoms: _114  and  _116
REMARK   46  A    between atoms: _116  and  _117
REMARK   47  A    between atoms: _116  and  _119
REMARK   48  A    between atoms: _119  and  _120
REMARK   49  A    between atoms: _125  and  _127
REMARK   50  A    between atoms: _127  and  _128
REMARK   51  A    between atoms: _127  and  _130
REMARK   52  A    between atoms: _130  and  _131
REMARK   53  A    between atoms: _134  and  _136
REMARK   54  A    between atoms: _136  and  _137
REMARK   55  A    between atoms: _136  and  _139
REMARK   56  A    between atoms: _139  and  _140
REMARK   57  A    between atoms: _145  and  _147
REMARK   58  A    between atoms: _147  and  _148
REMARK   59  A    between atoms: _147  and  _150
REMARK   60  A    between atoms: _150  and  _151
REMARK   61  A    between atoms: _156  and  _158
REMARK   62  A    between atoms: _158  and  _159
REMARK   63  A    between atoms: _158  and  _161
REMARK   64  A    between atoms: _161  and  _162
REMARK   65  A    between atoms: _167  and  _168
REMARK   66  A    between atoms: _170  and  _172
REMARK   67  A    between atoms: _172  and  _173
REMARK   68  A    between atoms: _172  and  _175
REMARK   69  A    between atoms: _175  and  _176
REMARK   70  A    between atoms: _178  and  _180
REMARK   71  A    between atoms: _180  and  _181
REMARK   72  A    between atoms: _180  and  _183
REMARK   73  A    between atoms: _183  and  _184
REMARK   74  A    between atoms: _194  and  _196
REMARK   75  A    between atoms: _196  and  _197
REMARK   76  A    between atoms: _196  and  _199
REMARK   77  A    between atoms: _199  and  _200
REMARK   78  A    between atoms: _203  and  _205
REMARK   79  A    between atoms: _205  and  _206
REMARK   80  A    between atoms: _205  and  _208
REMARK   81  A    between atoms: _208  and  _209
REMARK   82  A    between atoms: _211  and  _213
REMARK   83  A    between atoms: _213  and  _214
REMARK   84  A    between atoms: _213  and  _216
REMARK   85  A    between atoms: _216  and  _217
REMARK   86  A    between atoms: _217  and  _218
REMARK   87  A    between atoms: _221  and  _223
REMARK   88  A    between atoms: _223  and  _224
REMARK   89  A    between atoms: _223  and  _226
REMARK   90  A    between atoms: _226  and  _227
REMARK   91  A    between atoms: _232  and  _234
REMARK   92  A    between atoms: _234  and  _235
REMARK   93  A    between atoms: _237  and  _239
REMARK   94  A    between atoms: _239  and  _240
REMARK   95  A    between atoms: _239  and  _242
REMARK   96  A    between atoms: _242  and  _243
REMARK   97  A    between atoms: _243  and  _244
REMARK   98  A    between atoms: _246  and  _248
REMARK   99  A    between atoms: _248  and  _249
REMARK  100  A    between atoms: _248  and  _251
REMARK  101  A    between atoms: _251  and  _252
REMARK  102  A    between atoms: _255  and  _257
REMARK  103  A    between atoms: _257  and  _258
REMARK  104  A    between atoms: _257  and  _260
REMARK  105  A    between atoms: _260  and  _261
REMARK  106  A    between atoms: _271  and  _273
REMARK  107  A    between atoms: _273  and  _274
REMARK  108  A    between atoms: _273  and  _276
REMARK  109  A    between atoms: _276  and  _277
REMARK  110  A    between atoms: _279  and  _281
REMARK  111  A    between atoms: _281  and  _282
REMARK  112  A    between atoms: _281  and  _284
REMARK  113  A    between atoms: _284  and  _285
REMARK  114  A    between atoms: _290  and  _292
REMARK  115  A    between atoms: _292  and  _293
REMARK  116  A    between atoms: _292  and  _295
REMARK  117  A    between atoms: _295  and  _296
REMARK  118  A    between atoms: _302  and  _304
REMARK  119  A    between atoms: _304  and  _305
REMARK  120  A    between atoms: _304  and  _307
REMARK  121  A    between atoms: _307  and  _308
REMARK  122  A    between atoms: _308  and  _309
REMARK  123  A    between atoms: _312  and  _314
REMARK  124  A    between atoms: _314  and  _315
REMARK  125  A    between atoms: _314  and  _317
REMARK  126  A    between atoms: _317  and  _318
REMARK  127  A    between atoms: _328  and  _330
REMARK  128  A    between atoms: _330  and  _331
REMARK  129  A    between atoms: _330  and  _333
REMARK  130  A    between atoms: _333  and  _334
REMARK  131  A    between atoms: _334  and  _335
REMARK  132  A    between atoms: _335  and  _336
REMARK  133  A    between atoms: _345  and  _347
REMARK  134  A    between atoms: _347  and  _348
REMARK  135  A    between atoms: _347  and  _350
REMARK  136  A    between atoms: _350  and  _351
REMARK  137  A    between atoms: _354  and  _356
REMARK  138  A    between atoms: _356  and  _357
REMARK  139  A    between atoms: _356  and  _359
REMARK  140  A    between atoms: _359  and  _360
REMARK  141  A    between atoms: _362  and  _364
REMARK  142  A    between atoms: _364  and  _365
REMARK  143  A    between atoms: _364  and  _367
REMARK  144  A    between atoms: _367  and  _368
REMARK                            x       y       z     vdW  Elec       q    Type
REMARK                         _______ _______ _______ _____ _____    ______ ____
ROOT
ATOM      1  CA  SER A   1      12.544  13.000   1.623  0.00  0.00    +0.163 C 
ENDROOT
BRANCH   1   2
ATOM      2  N   SER A   1      12.074  12.187   0.515  0.00  0.00    -0.237 NA
ATOM      3  H   SER A   1      12.003  11.160   0.663  0.00  0.00    +0.142 HD
ENDBRANCH   1   2
BRANCH   1   4
ATOM      4  CB  SER A   1      13.690  12.289   2.332  0.00  0.00    +0.227 C 
ATOM      5  OG  SER A   1      13.565  11.130   2.712  0.00  0.00    -0.287 OA
ENDBRANCH   1   4
BRANCH   1   6
ATOM      6  C   SER A   1      11.399  13.230   2.608  0.00  0.00    +0.162 C 
BRANCH   6   7
ATOM      7  O   SER A   1      11.891  13.567   3.896  0.00  0.00    -0.380 OA
ATOM      8  H   SER A   1      12.429  14.396   3.836  0.00  0.00    +0.211 HD
ENDBRANCH   6   7
ENDBRANCH   1   6
TORSDOF 4
REMARK  Name = ../refined-set-2016/4re4/4re4_pocket.pdb
REMARK  144 active torsions:
REMARK  status: ('A' for Active; 'I' for Inactive)
REMARK    1  A    between atoms: _1  and  _3
REMARK    2  A    between atoms: _3  and  _4
REMARK    3  A    between atoms: _7  and  _9
REMARK    4  A    between atoms: _9  and  _10
REMARK    5  A    between atoms: _13  and  _15
REMARK    6  A    between atoms: _15  and  _16
REMARK    7  A    between atoms: _15  and  _18
REMARK    8  A    between atoms: _18  and  _19
REMARK    9  A    between atoms: _21  and  _23
REMARK   10  A    between atoms: _23  and  _24
REMARK   11  A    between atoms: _23  and  _26
REMARK   12  A    between atoms: _26  and  _27
REMARK   13  A    between atoms: _27  and  _28
REMARK   14  A    between atoms: _33  and  _35
REMARK   15  A    between atoms: _35  and  _36
REMARK   16  A    between atoms: _35  and  _38
REMARK   17  A    between atoms: _38  and  _39
REMARK   18  A    between atoms: _39  and  _40
REMARK   19  A    between atoms: _40  and  _41
REMARK   20  A    between atoms: _50  and  _52
REMARK   21  A    between atoms: _52  and  _53
REMARK   22  A    between atoms: _52  and  _55
REMARK   23  A    between atoms: _55  and  _56
REMARK   24  A    between atoms: _61  and  _63
REMARK   25  A    between atoms: _63  and  _64
REMARK   26  A    between atoms: _63  and  _66
REMARK   27  A    between atoms: _66  and  _67
REMARK   28  A    between atoms: _72  and  _74
REMARK   29  A    between atoms: _74  and  _75
REMARK   30  A    between atoms: _74  and  _77
REMARK   31  A    between atoms: _77  and  _78
REMARK   32  A    between atoms: _83  and  _84
REMARK   33  A    between atoms: _86  and  _88
REMARK   34  A    between atoms: _88  and  _89
REMARK   35  A    between atoms: _88  and  _91
REMARK   36  A    between atoms: _91  and  _92
REMARK   37  A    between atoms: _97  and  _99
REMARK   38  A    between atoms: _99  and  _100
REMARK   39  A    between atoms: _99  and  _102
REMARK   40  A    between atoms: _102  and  _103
REMARK   41  A    between atoms: _103  and  _104
REMARK   42  A    between atoms: _107  and  _109
REMARK   43  A    between atoms: _109  and  _110
REMARK   44  A    between atoms: _109  and  _112
REMARK   45  A    between atoms: _114  and  _116
REMARK   46  A    between atoms: _116  and  _117
REMARK   47  A    between atoms: _116  and  _119
REMARK   48  A    between atoms: _119  and  _120
REMARK   49  A    between atoms: _125  and  _127
REMARK   50  A    between atoms: _127  and  _128
REMARK   51  A    between atoms: _127  and  _130
REMARK   52  A    between atoms: _130  and  _131
REMARK   53  A    between atoms: _134  and  _136
REMARK   54  A    between atoms: _136  and  _137
REMARK   55  A    between atoms: _136  and  _139
REMARK   56  A    between atoms: _139  and  _140
REMARK   57  A    between atoms: _145  and  _147
REMARK   58  A    between atoms: _147  and  _148
REMARK   59  A    between atoms: _147  and  _150
REMARK   60  A    between atoms: _150  and  _151
REMARK   61  A    between atoms: _156  and  _158
REMARK   62  A    between atoms: _158  and  _159
REMARK   63  A    between atoms: _158  and  _161
REMARK   64  A    between atoms: _161  and  _162
REMARK   65  A    between atoms: _167  and  _168
REMARK   66  A    between atoms: _170  and  _172
REMARK   67  A    between atoms: _172  and  _173
REMARK   68  A    between atoms: _172  and  _175
REMARK   69  A    between atoms: _175  and  _176
REMARK   70  A    between atoms: _178  and  _180
REMARK   71  A    between atoms: _180  and  _181
REMARK   72  A    between atoms: _180  and  _183
REMARK   73  A    between atoms: _183  and  _184
REMARK   74  A    between atoms: _194  and  _196
REMARK   75  A    between atoms: _196  and  _197
REMARK   76  A    between atoms: _196  and  _199
REMARK   77  A    between atoms: _199  and  _200
REMARK   78  A    between atoms: _203  and  _205
REMARK   79  A    between atoms: _205  and  _206
REMARK   80  A    between atoms: _205  and  _208
REMARK   81  A    between atoms: _208  and  _209
REMARK   82  A    between atoms: _211  and  _213
REMARK   83  A    between atoms: _213  and  _214
REMARK   84  A    between atoms: _213  and  _216
REMARK   85  A    between atoms: _216  and  _217
REMARK   86  A    between atoms: _217  and  _218
REMARK   87  A    between atoms: _221  and  _223
REMARK   88  A    between atoms: _223  and  _224
REMARK   89  A    between atoms: _223  and  _226
REMARK   90  A    between atoms: _226  and  _227
REMARK   91  A    between atoms: _232  and  _234
REMARK   92  A    between atoms: _234  and  _235
REMARK   93  A    between atoms: _237  and  _239
REMARK   94  A    between atoms: _239  and  _240
REMARK   95  A    between atoms: _239  and  _242
REMARK   96  A    between atoms: _242  and  _243
REMARK   97  A    between atoms: _243  and  _244
REMARK   98  A    between atoms: _246  and  _248
REMARK   99  A    between atoms: _248  and  _249
REMARK  100  A    between atoms: _248  and  _251
REMARK  101  A    between atoms: _251  and  _252
REMARK  102  A    between atoms: _255  and  _257
REMARK  103  A    between atoms: _257  and  _258
REMARK  104  A    between atoms: _257  and  _260
REMARK  105  A    between atoms: _260  and  _261
REMARK  106  A    between atoms: _271  and  _273
REMARK  107  A    between atoms: _273  and  _274
REMARK  108  A    between atoms: _273  and  _276
REMARK  109  A    between atoms: _276  and  _277
REMARK  110  A    between atoms: _279  and  _281
REMARK  111  A    between atoms: _281  and  _282
REMARK  112  A    between atoms: _281  and  _284
REMARK  113  A    between atoms: _284  and  _285
REMARK  114  A    between atoms: _290  and  _292
REMARK  115  A    between atoms: _292  and  _293
REMARK  116  A    between atoms: _292  and  _295
REMARK  117  A    between atoms: _295  and  _296
REMARK  118  A    between atoms: _302  and  _304
REMARK  119  A    between atoms: _304  and  _305
REMARK  120  A    between atoms: _304  and  _307
REMARK  121  A    between atoms: _307  and  _308
REMARK  122  A    between atoms: _308  and  _309
REMARK  123  A    between atoms: _312  and  _314
REMARK  124  A    between atoms: _314  and  _315
REMARK  125  A    between atoms: _314  and  _317
REMARK  126  A    between atoms: _317  and  _318
REMARK  127  A    between atoms: _328  and  _330
REMARK  128  A    between atoms: _330  and  _331
REMARK  129  A    between atoms: _330  and  _333
REMARK  130  A    between atoms: _333  and  _334
REMARK  131  A    between atoms: _334  and  _335
REMARK  132  A    between atoms: _335  and  _336
REMARK  133  A    between atoms: _345  and  _347
REMARK  134  A    between atoms: _347  and  _348
REMARK  135  A    between atoms: _347  and  _350
REMARK  136  A    between atoms: _350  and  _351
REMARK  137  A    between atoms: _354  and  _356
REMARK  138  A    between atoms: _356  and  _357
REMARK  139  A    between atoms: _356  and  _359
REMARK  140  A    between atoms: _359  and  _360
REMARK  141  A    between atoms: _362  and  _364
REMARK  142  A    between atoms: _364  and  _365
REMARK  143  A    between atoms: _364  and  _367
REMARK  144  A    between atoms: _367  and  _368
REMARK                            x       y       z     vdW  Elec       q    Type
REMARK                         _______ _______ _______ _____ _____    ______ ____
ROOT
ATOM      1  CB  PHE A   1      15.146  12.608   7.898  0.00  0.00    +0.051 C 
ENDROOT
BRANCH   1   2
ATOM      2  CG  PHE A   1      14.014  13.610   7.927  0.00  0.00    -0.020 A 
ATOM      3  CD2 PHE A   1      14.100  14.759   8.723  0.00  0.00    -0.004 A 
ATOM      4  CE2 PHE A   1      13.049  15.696   8.763  0.00  0.00    -0.000 A 
ATOM      5  CZ  PHE A   1      11.887  15.482   8.005  0.00  0.00    -0.000 A 
ATOM      6  CE1 PHE A   1      11.788  14.329   7.186  0.00  0.00    -0.000 A 
ATOM      7  CD1 PHE A   1      12.857  13.401   7.161  0.00  0.00    -0.004 A 
ENDBRANCH   1   2
BRANCH   1   8
ATOM      8  CA  PHE A   1      16.296  12.980   6.931  0.00  0.00    +0.137 C 
BRANCH   8   9
ATOM      9  N   PHE A   1      16.045  12.429   5.579  0.00  0.00    -0.239 NA
ATOM     10  H   PHE A   1      15.602  11.491   5.504  0.00  0.00    +0.142 HD
ENDBRANCH   8   9
BRANCH   8  11
ATOM     11  C   PHE A   1      17.626  12.543   7.561  0.00  0.00    +0.224 C 
ATOM     12  O   PHE A   1      18.007  13.032   8.630  0.00  0.00    -0.287 OA
ENDBRANCH   8  11
ENDBRANCH   1   8
TORSDOF 4
REMARK  Name = ../refined-set-2016/4re4/4re4_pocket.pdb
REMARK  144 active torsions:
REMARK  status: ('A' for Active; 'I' for Inactive)
REMARK    1  A    between atoms: _1  and  _3
REMARK    2  A    between atoms: _3  and  _4
REMARK    3  A    between atoms: _7  and  _9
REMARK    4  A    between atoms: _9  and  _10
REMARK    5  A    between atoms: _13  and  _15
REMARK    6  A    between atoms: _15  and  _16
REMARK    7  A    between atoms: _15  and  _18
REMARK    8  A    between atoms: _18  and  _19
REMARK    9  A    between atoms: _21  and  _23
REMARK   10  A    between atoms: _23  and  _24
REMARK   11  A    between atoms: _23  and  _26
REMARK   12  A    between atoms: _26  and  _27
REMARK   13  A    between atoms: _27  and  _28
REMARK   14  A    between atoms: _33  and  _35
REMARK   15  A    between atoms: _35  and  _36
REMARK   16  A    between atoms: _35  and  _38
REMARK   17  A    between atoms: _38  and  _39
REMARK   18  A    between atoms: _39  and  _40
REMARK   19  A    between atoms: _40  and  _41
REMARK   20  A    between atoms: _50  and  _52
REMARK   21  A    between atoms: _52  and  _53
REMARK   22  A    between atoms: _52  and  _55
REMARK   23  A    between atoms: _55  and  _56
REMARK   24  A    between atoms: _61  and  _63
REMARK   25  A    between atoms: _63  and  _64
REMARK   26  A    between atoms: _63  and  _66
REMARK   27  A    between atoms: _66  and  _67
REMARK   28  A    between atoms: _72  and  _74
REMARK   29  A    between atoms: _74  and  _75
REMARK   30  A    between atoms: _74  and  _77
REMARK   31  A    between atoms: _77  and  _78
REMARK   32  A    between atoms: _83  and  _84
REMARK   33  A    between atoms: _86  and  _88
REMARK   34  A    between atoms: _88  and  _89
REMARK   35  A    between atoms: _88  and  _91
REMARK   36  A    between atoms: _91  and  _92
REMARK   37  A    between atoms: _97  and  _99
REMARK   38  A    between atoms: _99  and  _100
REMARK   39  A    between atoms: _99  and  _102
REMARK   40  A    between atoms: _102  and  _103
REMARK   41  A    between atoms: _103  and  _104
REMARK   42  A    between atoms: _107  and  _109
REMARK   43  A    between atoms: _109  and  _110
REMARK   44  A    between atoms: _109  and  _112
REMARK   45  A    between atoms: _114  and  _116
REMARK   46  A    between atoms: _116  and  _117
REMARK   47  A    between atoms: _116  and  _119
REMARK   48  A    between atoms: _119  and  _120
REMARK   49  A    between atoms: _125  and  _127
REMARK   50  A    between atoms: _127  and  _128
REMARK   51  A    between atoms: _127  and  _130
REMARK   52  A    between atoms: _130  and  _131
REMARK   53  A    between atoms: _134  and  _136
REMARK   54  A    between atoms: _136  and  _137
REMARK   55  A    between atoms: _136  and  _139
REMARK   56  A    between atoms: _139  and  _140
REMARK   57  A    between atoms: _145  and  _147
REMARK   58  A    between atoms: _147  and  _148
REMARK   59  A    between atoms: _147  and  _150
REMARK   60  A    between atoms: _150  and  _151
REMARK   61  A    between atoms: _156  and  _158
REMARK   62  A    between atoms: _158  and  _159
REMARK   63  A    between atoms: _158  and  _161
REMARK   64  A    between atoms: _161  and  _162
REMARK   65  A    between atoms: _167  and  _168
REMARK   66  A    between atoms: _170  and  _172
REMARK   67  A    between atoms: _172  and  _173
REMARK   68  A    between atoms: _172  and  _175
REMARK   69  A    between atoms: _175  and  _176
REMARK   70  A    between atoms: _178  and  _180
REMARK   71  A    between atoms: _180  and  _181
REMARK   72  A    between atoms: _180  and  _183
REMARK   73  A    between atoms: _183  and  _184
REMARK   74  A    between atoms: _194  and  _196
REMARK   75  A    between atoms: _196  and  _197
REMARK   76  A    between atoms: _196  and  _199
REMARK   77  A    between atoms: _199  and  _200
REMARK   78  A    between atoms: _203  and  _205
REMARK   79  A    between atoms: _205  and  _206
REMARK   80  A    between atoms: _205  and  _208
REMARK   81  A    between atoms: _208  and  _209
REMARK   82  A    between atoms: _211  and  _213
REMARK   83  A    between atoms: _213  and  _214
REMARK   84  A    between atoms: _213  and  _216
REMARK   85  A    between atoms: _216  and  _217
REMARK   86  A    between atoms: _217  and  _218
REMARK   87  A    between atoms: _221  and  _223
REMARK   88  A    between atoms: _223  and  _224
REMARK   89  A    between atoms: _223  and  _226
REMARK   90  A    between atoms: _226  and  _227
REMARK   91  A    between atoms: _232  and  _234
REMARK   92  A    between atoms: _234  and  _235
REMARK   93  A    between atoms: _237  and  _239
REMARK   94  A    between atoms: _239  and  _240
REMARK   95  A    between atoms: _239  and  _242
REMARK   96  A    between atoms: _242  and  _243
REMARK   97  A    between atoms: _243  and  _244
REMARK   98  A    between atoms: _246  and  _248
REMARK   99  A    between atoms: _248  and  _249
REMARK  100  A    between atoms: _248  and  _251
REMARK  101  A    between atoms: _251  and  _252
REMARK  102  A    between atoms: _255  and  _257
REMARK  103  A    between atoms: _257  and  _258
REMARK  104  A    between atoms: _257  and  _260
REMARK  105  A    between atoms: _260  and  _261
REMARK  106  A    between atoms: _271  and  _273
REMARK  107  A    between atoms: _273  and  _274
REMARK  108  A    between atoms: _273  and  _276
REMARK  109  A    between atoms: _276  and  _277
REMARK  110  A    between atoms: _279  and  _281
REMARK  111  A    between atoms: _281  and  _282
REMARK  112  A    between atoms: _281  and  _284
REMARK  113  A    between atoms: _284  and  _285
REMARK  114  A    between atoms: _290  and  _292
REMARK  115  A    between atoms: _292  and  _293
REMARK  116  A    between atoms: _292  and  _295
REMARK  117  A    between atoms: _295  and  _296
REMARK  118  A    between atoms: _302  and  _304
REMARK  119  A    between atoms: _304  and  _305
REMARK  120  A    between atoms: _304  and  _307
REMARK  121  A    between atoms: _307  and  _308
REMARK  122  A    between atoms: _308  and  _309
REMARK  123  A    between atoms: _312  and  _314
REMARK  124  A    between atoms: _314  and  _315
REMARK  125  A    between atoms: _314  and  _317
REMARK  126  A    between atoms: _317  and  _318
REMARK  127  A    between atoms: _328  and  _330
REMARK  128  A    between atoms: _330  and  _331
REMARK  129  A    between atoms: _330  and  _333
REMARK  130  A    between atoms: _333  and  _334
REMARK  131  A    between atoms: _334  and  _335
REMARK  132  A    between atoms: _335  and  _336
REMARK  133  A    between atoms: _345  and  _347
REMARK  134  A    between atoms: _347  and  _348
REMARK  135  A    between atoms: _347  and  _350
REMARK  136  A    between atoms: _350  and  _351
REMARK  137  A    between atoms: _354  and  _356
REMARK  138  A    between atoms: _356  and  _357
REMARK  139  A    between atoms: _356  and  _359
REMARK  140  A    between atoms: _359  and  _360
REMARK  141  A    between atoms: _362  and  _364
REMARK  142  A    between atoms: _364  and  _365
REMARK  143  A    between atoms: _364  and  _367
REMARK  144  A    between atoms: _367  and  _368
REMARK                            x       y       z     vdW  Elec       q    Type
REMARK                         _______ _______ _______ _____ _____    ______ ____
ROOT
ATOM      1  O   HOH     1      12.612   9.907   7.739  0.00  0.00    +0.000 OA
ENDROOT
TORSDOF 0
REMARK  Name = ../refined-set-2016/4re4/4re4_pocket.pdb
REMARK  144 active torsions:
REMARK  status: ('A' for Active; 'I' for Inactive)
REMARK    1  A    between atoms: _1  and  _3
REMARK    2  A    between atoms: _3  and  _4
REMARK    3  A    between atoms: _7  and  _9
REMARK    4  A    between atoms: _9  and  _10
REMARK    5  A    between atoms: _13  and  _15
REMARK    6  A    between atoms: _15  and  _16
REMARK    7  A    between atoms: _15  and  _18
REMARK    8  A    between atoms: _18  and  _19
REMARK    9  A    between atoms: _21  and  _23
REMARK   10  A    between atoms: _23  and  _24
REMARK   11  A    between atoms: _23  and  _26
REMARK   12  A    between atoms: _26  and  _27
REMARK   13  A    between atoms: _27  and  _28
REMARK   14  A    between atoms: _33  and  _35
REMARK   15  A    between atoms: _35  and  _36
REMARK   16  A    between atoms: _35  and  _38
REMARK   17  A    between atoms: _38  and  _39
REMARK   18  A    between atoms: _39  and  _40
REMARK   19  A    between atoms: _40  and  _41
REMARK   20  A    between atoms: _50  and  _52
REMARK   21  A    between atoms: _52  and  _53
REMARK   22  A    between atoms: _52  and  _55
REMARK   23  A    between atoms: _55  and  _56
REMARK   24  A    between atoms: _61  and  _63
REMARK   25  A    between atoms: _63  and  _64
REMARK   26  A    between atoms: _63  and  _66
REMARK   27  A    between atoms: _66  and  _67
REMARK   28  A    between atoms: _72  and  _74
REMARK   29  A    between atoms: _74  and  _75
REMARK   30  A    between atoms: _74  and  _77
REMARK   31  A    between atoms: _77  and  _78
REMARK   32  A    between atoms: _83  and  _84
REMARK   33  A    between atoms: _86  and  _88
REMARK   34  A    between atoms: _88  and  _89
REMARK   35  A    between atoms: _88  and  _91
REMARK   36  A    between atoms: _91  and  _92
REMARK   37  A    between atoms: _97  and  _99
REMARK   38  A    between atoms: _99  and  _100
REMARK   39  A    between atoms: _99  and  _102
REMARK   40  A    between atoms: _102  and  _103
REMARK   41  A    between atoms: _103  and  _104
REMARK   42  A    between atoms: _107  and  _109
REMARK   43  A    between atoms: _109  and  _110
REMARK   44  A    between atoms: _109  and  _112
REMARK   45  A    between atoms: _114  and  _116
REMARK   46  A    between atoms: _116  and  _117
REMARK   47  A    between atoms: _116  and  _119
REMARK   48  A    between atoms: _119  and  _120
REMARK   49  A    between atoms: _125  and  _127
REMARK   50  A    between atoms: _127  and  _128
REMARK   51  A    between atoms: _127  and  _130
REMARK   52  A    between atoms: _130  and  _131
REMARK   53  A    between atoms: _134  and  _136
REMARK   54  A    between atoms: _136  and  _137
REMARK   55  A    between atoms: _136  and  _139
REMARK   56  A    between atoms: _139  and  _140
REMARK   57  A    between atoms: _145  and  _147
REMARK   58  A    between atoms: _147  and  _148
REMARK   59  A    between atoms: _147  and  _150
REMARK   60  A    between atoms: _150  and  _151
REMARK   61  A    between atoms: _156  and  _158
REMARK   62  A    between atoms: _158  and  _159
REMARK   63  A    between atoms: _158  and  _161
REMARK   64  A    between atoms: _161  and  _162
REMARK   65  A    between atoms: _167  and  _168
REMARK   66  A    between atoms: _170  and  _172
REMARK   67  A    between atoms: _172  and  _173
REMARK   68  A    between atoms: _172  and  _175
REMARK   69  A    between atoms: _175  and  _176
REMARK   70  A    between atoms: _178  and  _180
REMARK   71  A    between atoms: _180  and  _181
REMARK   72  A    between atoms: _180  and  _183
REMARK   73  A    between atoms: _183  and  _184
REMARK   74  A    between atoms: _194  and  _196
REMARK   75  A    between atoms: _196  and  _197
REMARK   76  A    between atoms: _196  and  _199
REMARK   77  A    between atoms: _199  and  _200
REMARK   78  A    between atoms: _203  and  _205
REMARK   79  A    between atoms: _205  and  _206
REMARK   80  A    between atoms: _205  and  _208
REMARK   81  A    between atoms: _208  and  _209
REMARK   82  A    between atoms: _211  and  _213
REMARK   83  A    between atoms: _213  and  _214
REMARK   84  A    between atoms: _213  and  _216
REMARK   85  A    between atoms: _216  and  _217
REMARK   86  A    between atoms: _217  and  _218
REMARK   87  A    between atoms: _221  and  _223
REMARK   88  A    between atoms: _223  and  _224
REMARK   89  A    between atoms: _223  and  _226
REMARK   90  A    between atoms: _226  and  _227
REMARK   91  A    between atoms: _232  and  _234
REMARK   92  A    between atoms: _234  and  _235
REMARK   93  A    between atoms: _237  and  _239
REMARK   94  A    between atoms: _239  and  _240
REMARK   95  A    between atoms: _239  and  _242
REMARK   96  A    between atoms: _242  and  _243
REMARK   97  A    between atoms: _243  and  _244
REMARK   98  A    between atoms: _246  and  _248
REMARK   99  A    between atoms: _248  and  _249
REMARK  100  A    between atoms: _248  and  _251
REMARK  101  A    between atoms: _251  and  _252
REMARK  102  A    between atoms: _255  and  _257
REMARK  103  A    between atoms: _257  and  _258
REMARK  104  A    between atoms: _257  and  _260
REMARK  105  A    between atoms: _260  and  _261
REMARK  106  A    between atoms: _271  and  _273
REMARK  107  A    between atoms: _273  and  _274
REMARK  108  A    between atoms: _273  and  _276
REMARK  109  A    between atoms: _276  and  _277
REMARK  110  A    between atoms: _279  and  _281
REMARK  111  A    between atoms: _281  and  _282
REMARK  112  A    between atoms: _281  and  _284
REMARK  113  A    between atoms: _284  and  _285
REMARK  114  A    between atoms: _290  and  _292
REMARK  115  A    between atoms: _292  and  _293
REMARK  116  A    between atoms: _292  and  _295
REMARK  117  A    between atoms: _295  and  _296
REMARK  118  A    between atoms: _302  and  _304
REMARK  119  A    between atoms: _304  and  _305
REMARK  120  A    between atoms: _304  and  _307
REMARK  121  A    between atoms: _307  and  _308
REMARK  122  A    between atoms: _308  and  _309
REMARK  123  A    between atoms: _312  and  _314
REMARK  124  A    between atoms: _314  and  _315
REMARK  125  A    between atoms: _314  and  _317
REMARK  126  A    between atoms: _317  and  _318
REMARK  127  A    between atoms: _328  and  _330
REMARK  128  A    between atoms: _330  and  _331
REMARK  129  A    between atoms: _330  and  _333
REMARK  130  A    between atoms: _333  and  _334
REMARK  131  A    between atoms: _334  and  _335
REMARK  132  A    between atoms: _335  and  _336
REMARK  133  A    between atoms: _345  and  _347
REMARK  134  A    between atoms: _347  and  _348
REMARK  135  A    between atoms: _347  and  _350
REMARK  136  A    between atoms: _350  and  _351
REMARK  137  A    between atoms: _354  and  _356
REMARK  138  A    between atoms: _356  and  _357
REMARK  139  A    between atoms: _356  and  _359
REMARK  140  A    between atoms: _359  and  _360
REMARK  141  A    between atoms: _362  and  _364
REMARK  142  A    between atoms: _364  and  _365
REMARK  143  A    between atoms: _364  and  _367
REMARK  144  A    between atoms: _367  and  _368
REMARK                            x       y       z     vdW  Elec       q    Type
REMARK                         _______ _______ _______ _____ _____    ______ ____
ROOT
ATOM      1  O   HOH     1      14.367  10.191   5.294  0.00  0.00    +0.000 OA
ENDROOT
TORSDOF 0
REMARK  Name = ../refined-set-2016/4re4/4re4_pocket.pdb
REMARK  144 active torsions:
REMARK  status: ('A' for Active; 'I' for Inactive)
REMARK    1  A    between atoms: _1  and  _3
REMARK    2  A    between atoms: _3  and  _4
REMARK    3  A    between atoms: _7  and  _9
REMARK    4  A    between atoms: _9  and  _10
REMARK    5  A    between atoms: _13  and  _15
REMARK    6  A    between atoms: _15  and  _16
REMARK    7  A    between atoms: _15  and  _18
REMARK    8  A    between atoms: _18  and  _19
REMARK    9  A    between atoms: _21  and  _23
REMARK   10  A    between atoms: _23  and  _24
REMARK   11  A    between atoms: _23  and  _26
REMARK   12  A    between atoms: _26  and  _27
REMARK   13  A    between atoms: _27  and  _28
REMARK   14  A    between atoms: _33  and  _35
REMARK   15  A    between atoms: _35  and  _36
REMARK   16  A    between atoms: _35  and  _38
REMARK   17  A    between atoms: _38  and  _39
REMARK   18  A    between atoms: _39  and  _40
REMARK   19  A    between atoms: _40  and  _41
REMARK   20  A    between atoms: _50  and  _52
REMARK   21  A    between atoms: _52  and  _53
REMARK   22  A    between atoms: _52  and  _55
REMARK   23  A    between atoms: _55  and  _56
REMARK   24  A    between atoms: _61  and  _63
REMARK   25  A    between atoms: _63  and  _64
REMARK   26  A    between atoms: _63  and  _66
REMARK   27  A    between atoms: _66  and  _67
REMARK   28  A    between atoms: _72  and  _74
REMARK   29  A    between atoms: _74  and  _75
REMARK   30  A    between atoms: _74  and  _77
REMARK   31  A    between atoms: _77  and  _78
REMARK   32  A    between atoms: _83  and  _84
REMARK   33  A    between atoms: _86  and  _88
REMARK   34  A    between atoms: _88  and  _89
REMARK   35  A    between atoms: _88  and  _91
REMARK   36  A    between atoms: _91  and  _92
REMARK   37  A    between atoms: _97  and  _99
REMARK   38  A    between atoms: _99  and  _100
REMARK   39  A    between atoms: _99  and  _102
REMARK   40  A    between atoms: _102  and  _103
REMARK   41  A    between atoms: _103  and  _104
REMARK   42  A    between atoms: _107  and  _109
REMARK   43  A    between atoms: _109  and  _110
REMARK   44  A    between atoms: _109  and  _112
REMARK   45  A    between atoms: _114  and  _116
REMARK   46  A    between atoms: _116  and  _117
REMARK   47  A    between atoms: _116  and  _119
REMARK   48  A    between atoms: _119  and  _120
REMARK   49  A    between atoms: _125  and  _127
REMARK   50  A    between atoms: _127  and  _128
REMARK   51  A    between atoms: _127  and  _130
REMARK   52  A    between atoms: _130  and  _131
REMARK   53  A    between atoms: _134  and  _136
REMARK   54  A    between atoms: _136  and  _137
REMARK   55  A    between atoms: _136  and  _139
REMARK   56  A    between atoms: _139  and  _140
REMARK   57  A    between atoms: _145  and  _147
REMARK   58  A    between atoms: _147  and  _148
REMARK   59  A    between atoms: _147  and  _150
REMARK   60  A    between atoms: _150  and  _151
REMARK   61  A    between atoms: _156  and  _158
REMARK   62  A    between atoms: _158  and  _159
REMARK   63  A    between atoms: _158  and  _161
REMARK   64  A    between atoms: _161  and  _162
REMARK   65  A    between atoms: _167  and  _168
REMARK   66  A    between atoms: _170  and  _172
REMARK   67  A    between atoms: _172  and  _173
REMARK   68  A    between atoms: _172  and  _175
REMARK   69  A    between atoms: _175  and  _176
REMARK   70  A    between atoms: _178  and  _180
REMARK   71  A    between atoms: _180  and  _181
REMARK   72  A    between atoms: _180  and  _183
REMARK   73  A    between atoms: _183  and  _184
REMARK   74  A    between atoms: _194  and  _196
REMARK   75  A    between atoms: _196  and  _197
REMARK   76  A    between atoms: _196  and  _199
REMARK   77  A    between atoms: _199  and  _200
REMARK   78  A    between atoms: _203  and  _205
REMARK   79  A    between atoms: _205  and  _206
REMARK   80  A    between atoms: _205  and  _208
REMARK   81  A    between atoms: _208  and  _209
REMARK   82  A    between atoms: _211  and  _213
REMARK   83  A    between atoms: _213  and  _214
REMARK   84  A    between atoms: _213  and  _216
REMARK   85  A    between atoms: _216  and  _217
REMARK   86  A    between atoms: _217  and  _218
REMARK   87  A    between atoms: _221  and  _223
REMARK   88  A    between atoms: _223  and  _224
REMARK   89  A    between atoms: _223  and  _226
REMARK   90  A    between atoms: _226  and  _227
REMARK   91  A    between atoms: _232  and  _234
REMARK   92  A    between atoms: _234  and  _235
REMARK   93  A    between atoms: _237  and  _239
REMARK   94  A    between atoms: _239  and  _240
REMARK   95  A    between atoms: _239  and  _242
REMARK   96  A    between atoms: _242  and  _243
REMARK   97  A    between atoms: _243  and  _244
REMARK   98  A    between atoms: _246  and  _248
REMARK   99  A    between atoms: _248  and  _249
REMARK  100  A    between atoms: _248  and  _251
REMARK  101  A    between atoms: _251  and  _252
REMARK  102  A    between atoms: _255  and  _257
REMARK  103  A    between atoms: _257  and  _258
REMARK  104  A    between atoms: _257  and  _260
REMARK  105  A    between atoms: _260  and  _261
REMARK  106  A    between atoms: _271  and  _273
REMARK  107  A    between atoms: _273  and  _274
REMARK  108  A    between atoms: _273  and  _276
REMARK  109  A    between atoms: _276  and  _277
REMARK  110  A    between atoms: _279  and  _281
REMARK  111  A    between atoms: _281  and  _282
REMARK  112  A    between atoms: _281  and  _284
REMARK  113  A    between atoms: _284  and  _285
REMARK  114  A    between atoms: _290  and  _292
REMARK  115  A    between atoms: _292  and  _293
REMARK  116  A    between atoms: _292  and  _295
REMARK  117  A    between atoms: _295  and  _296
REMARK  118  A    between atoms: _302  and  _304
REMARK  119  A    between atoms: _304  and  _305
REMARK  120  A    between atoms: _304  and  _307
REMARK  121  A    between atoms: _307  and  _308
REMARK  122  A    between atoms: _308  and  _309
REMARK  123  A    between atoms: _312  and  _314
REMARK  124  A    between atoms: _314  and  _315
REMARK  125  A    between atoms: _314  and  _317
REMARK  126  A    between atoms: _317  and  _318
REMARK  127  A    between atoms: _328  and  _330
REMARK  128  A    between atoms: _330  and  _331
REMARK  129  A    between atoms: _330  and  _333
REMARK  130  A    between atoms: _333  and  _334
REMARK  131  A    between atoms: _334  and  _335
REMARK  132  A    between atoms: _335  and  _336
REMARK  133  A    between atoms: _345  and  _347
REMARK  134  A    between atoms: _347  and  _348
REMARK  135  A    between atoms: _347  and  _350
REMARK  136  A    between atoms: _350  and  _351
REMARK  137  A    between atoms: _354  and  _356
REMARK  138  A    between atoms: _356  and  _357
REMARK  139  A    between atoms: _356  and  _359
REMARK  140  A    between atoms: _359  and  _360
REMARK  141  A    between atoms: _362  and  _364
REMARK  142  A    between atoms: _364  and  _365
REMARK  143  A    between atoms: _364  and  _367
REMARK  144  A    between atoms: _367  and  _368
REMARK                            x       y       z     vdW  Elec       q    Type
REMARK                         _______ _______ _______ _____ _____    ______ ____
ROOT
ATOM      1  O   HOH     1       4.013  11.741   6.040  0.00  0.00    +0.000 OA
ENDROOT
TORSDOF 0
REMARK  Name = ../refined-set-2016/4re4/4re4_pocket.pdb
REMARK  144 active torsions:
REMARK  status: ('A' for Active; 'I' for Inactive)
REMARK    1  A    between atoms: _1  and  _3
REMARK    2  A    between atoms: _3  and  _4
REMARK    3  A    between atoms: _7  and  _9
REMARK    4  A    between atoms: _9  and  _10
REMARK    5  A    between atoms: _13  and  _15
REMARK    6  A    between atoms: _15  and  _16
REMARK    7  A    between atoms: _15  and  _18
REMARK    8  A    between atoms: _18  and  _19
REMARK    9  A    between atoms: _21  and  _23
REMARK   10  A    between atoms: _23  and  _24
REMARK   11  A    between atoms: _23  and  _26
REMARK   12  A    between atoms: _26  and  _27
REMARK   13  A    between atoms: _27  and  _28
REMARK   14  A    between atoms: _33  and  _35
REMARK   15  A    between atoms: _35  and  _36
REMARK   16  A    between atoms: _35  and  _38
REMARK   17  A    between atoms: _38  and  _39
REMARK   18  A    between atoms: _39  and  _40
REMARK   19  A    between atoms: _40  and  _41
REMARK   20  A    between atoms: _50  and  _52
REMARK   21  A    between atoms: _52  and  _53
REMARK   22  A    between atoms: _52  and  _55
REMARK   23  A    between atoms: _55  and  _56
REMARK   24  A    between atoms: _61  and  _63
REMARK   25  A    between atoms: _63  and  _64
REMARK   26  A    between atoms: _63  and  _66
REMARK   27  A    between atoms: _66  and  _67
REMARK   28  A    between atoms: _72  and  _74
REMARK   29  A    between atoms: _74  and  _75
REMARK   30  A    between atoms: _74  and  _77
REMARK   31  A    between atoms: _77  and  _78
REMARK   32  A    between atoms: _83  and  _84
REMARK   33  A    between atoms: _86  and  _88
REMARK   34  A    between atoms: _88  and  _89
REMARK   35  A    between atoms: _88  and  _91
REMARK   36  A    between atoms: _91  and  _92
REMARK   37  A    between atoms: _97  and  _99
REMARK   38  A    between atoms: _99  and  _100
REMARK   39  A    between atoms: _99  and  _102
REMARK   40  A    between atoms: _102  and  _103
REMARK   41  A    between atoms: _103  and  _104
REMARK   42  A    between atoms: _107  and  _109
REMARK   43  A    between atoms: _109  and  _110
REMARK   44  A    between atoms: _109  and  _112
REMARK   45  A    between atoms: _114  and  _116
REMARK   46  A    between atoms: _116  and  _117
REMARK   47  A    between atoms: _116  and  _119
REMARK   48  A    between atoms: _119  and  _120
REMARK   49  A    between atoms: _125  and  _127
REMARK   50  A    between atoms: _127  and  _128
REMARK   51  A    between atoms: _127  and  _130
REMARK   52  A    between atoms: _130  and  _131
REMARK   53  A    between atoms: _134  and  _136
REMARK   54  A    between atoms: _136  and  _137
REMARK   55  A    between atoms: _136  and  _139
REMARK   56  A    between atoms: _139  and  _140
REMARK   57  A    between atoms: _145  and  _147
REMARK   58  A    between atoms: _147  and  _148
REMARK   59  A    between atoms: _147  and  _150
REMARK   60  A    between atoms: _150  and  _151
REMARK   61  A    between atoms: _156  and  _158
REMARK   62  A    between atoms: _158  and  _159
REMARK   63  A    between atoms: _158  and  _161
REMARK   64  A    between atoms: _161  and  _162
REMARK   65  A    between atoms: _167  and  _168
REMARK   66  A    between atoms: _170  and  _172
REMARK   67  A    between atoms: _172  and  _173
REMARK   68  A    between atoms: _172  and  _175
REMARK   69  A    between atoms: _175  and  _176
REMARK   70  A    between atoms: _178  and  _180
REMARK   71  A    between atoms: _180  and  _181
REMARK   72  A    between atoms: _180  and  _183
REMARK   73  A    between atoms: _183  and  _184
REMARK   74  A    between atoms: _194  and  _196
REMARK   75  A    between atoms: _196  and  _197
REMARK   76  A    between atoms: _196  and  _199
REMARK   77  A    between atoms: _199  and  _200
REMARK   78  A    between atoms: _203  and  _205
REMARK   79  A    between atoms: _205  and  _206
REMARK   80  A    between atoms: _205  and  _208
REMARK   81  A    between atoms: _208  and  _209
REMARK   82  A    between atoms: _211  and  _213
REMARK   83  A    between atoms: _213  and  _214
REMARK   84  A    between atoms: _213  and  _216
REMARK   85  A    between atoms: _216  and  _217
REMARK   86  A    between atoms: _217  and  _218
REMARK   87  A    between atoms: _221  and  _223
REMARK   88  A    between atoms: _223  and  _224
REMARK   89  A    between atoms: _223  and  _226
REMARK   90  A    between atoms: _226  and  _227
REMARK   91  A    between atoms: _232  and  _234
REMARK   92  A    between atoms: _234  and  _235
REMARK   93  A    between atoms: _237  and  _239
REMARK   94  A    between atoms: _239  and  _240
REMARK   95  A    between atoms: _239  and  _242
REMARK   96  A    between atoms: _242  and  _243
REMARK   97  A    between atoms: _243  and  _244
REMARK   98  A    between atoms: _246  and  _248
REMARK   99  A    between atoms: _248  and  _249
REMARK  100  A    between atoms: _248  and  _251
REMARK  101  A    between atoms: _251  and  _252
REMARK  102  A    between atoms: _255  and  _257
REMARK  103  A    between atoms: _257  and  _258
REMARK  104  A    between atoms: _257  and  _260
REMARK  105  A    between atoms: _260  and  _261
REMARK  106  A    between atoms: _271  and  _273
REMARK  107  A    between atoms: _273  and  _274
REMARK  108  A    between atoms: _273  and  _276
REMARK  109  A    between atoms: _276  and  _277
REMARK  110  A    between atoms: _279  and  _281
REMARK  111  A    between atoms: _281  and  _282
REMARK  112  A    between atoms: _281  and  _284
REMARK  113  A    between atoms: _284  and  _285
REMARK  114  A    between atoms: _290  and  _292
REMARK  115  A    between atoms: _292  and  _293
REMARK  116  A    between atoms: _292  and  _295
REMARK  117  A    between atoms: _295  and  _296
REMARK  118  A    between atoms: _302  and  _304
REMARK  119  A    between atoms: _304  and  _305
REMARK  120  A    between atoms: _304  and  _307
REMARK  121  A    between atoms: _307  and  _308
REMARK  122  A    between atoms: _308  and  _309
REMARK  123  A    between atoms: _312  and  _314
REMARK  124  A    between atoms: _314  and  _315
REMARK  125  A    between atoms: _314  and  _317
REMARK  126  A    between atoms: _317  and  _318
REMARK  127  A    between atoms: _328  and  _330
REMARK  128  A    between atoms: _330  and  _331
REMARK  129  A    between atoms: _330  and  _333
REMARK  130  A    between atoms: _333  and  _334
REMARK  131  A    between atoms: _334  and  _335
REMARK  132  A    between atoms: _335  and  _336
REMARK  133  A    between atoms: _345  and  _347
REMARK  134  A    between atoms: _347  and  _348
REMARK  135  A    between atoms: _347  and  _350
REMARK  136  A    between atoms: _350  and  _351
REMARK  137  A    between atoms: _354  and  _356
REMARK  138  A    between atoms: _356  and  _357
REMARK  139  A    between atoms: _356  and  _359
REMARK  140  A    between atoms: _359  and  _360
REMARK  141  A    between atoms: _362  and  _364
REMARK  142  A    between atoms: _364  and  _365
REMARK  143  A    between atoms: _364  and  _367
REMARK  144  A    between atoms: _367  and  _368
REMARK                            x       y       z     vdW  Elec       q    Type
REMARK                         _______ _______ _______ _____ _____    ______ ____
ROOT
ATOM      1  O   HOH     1       7.134   2.062  13.107  0.00  0.00    +0.000 OA
ENDROOT
TORSDOF 0
REMARK  Name = ../refined-set-2016/4re4/4re4_pocket.pdb
REMARK  144 active torsions:
REMARK  status: ('A' for Active; 'I' for Inactive)
REMARK    1  A    between atoms: _1  and  _3
REMARK    2  A    between atoms: _3  and  _4
REMARK    3  A    between atoms: _7  and  _9
REMARK    4  A    between atoms: _9  and  _10
REMARK    5  A    between atoms: _13  and  _15
REMARK    6  A    between atoms: _15  and  _16
REMARK    7  A    between atoms: _15  and  _18
REMARK    8  A    between atoms: _18  and  _19
REMARK    9  A    between atoms: _21  and  _23
REMARK   10  A    between atoms: _23  and  _24
REMARK   11  A    between atoms: _23  and  _26
REMARK   12  A    between atoms: _26  and  _27
REMARK   13  A    between atoms: _27  and  _28
REMARK   14  A    between atoms: _33  and  _35
REMARK   15  A    between atoms: _35  and  _36
REMARK   16  A    between atoms: _35  and  _38
REMARK   17  A    between atoms: _38  and  _39
REMARK   18  A    between atoms: _39  and  _40
REMARK   19  A    between atoms: _40  and  _41
REMARK   20  A    between atoms: _50  and  _52
REMARK   21  A    between atoms: _52  and  _53
REMARK   22  A    between atoms: _52  and  _55
REMARK   23  A    between atoms: _55  and  _56
REMARK   24  A    between atoms: _61  and  _63
REMARK   25  A    between atoms: _63  and  _64
REMARK   26  A    between atoms: _63  and  _66
REMARK   27  A    between atoms: _66  and  _67
REMARK   28  A    between atoms: _72  and  _74
REMARK   29  A    between atoms: _74  and  _75
REMARK   30  A    between atoms: _74  and  _77
REMARK   31  A    between atoms: _77  and  _78
REMARK   32  A    between atoms: _83  and  _84
REMARK   33  A    between atoms: _86  and  _88
REMARK   34  A    between atoms: _88  and  _89
REMARK   35  A    between atoms: _88  and  _91
REMARK   36  A    between atoms: _91  and  _92
REMARK   37  A    between atoms: _97  and  _99
REMARK   38  A    between atoms: _99  and  _100
REMARK   39  A    between atoms: _99  and  _102
REMARK   40  A    between atoms: _102  and  _103
REMARK   41  A    between atoms: _103  and  _104
REMARK   42  A    between atoms: _107  and  _109
REMARK   43  A    between atoms: _109  and  _110
REMARK   44  A    between atoms: _109  and  _112
REMARK   45  A    between atoms: _114  and  _116
REMARK   46  A    between atoms: _116  and  _117
REMARK   47  A    between atoms: _116  and  _119
REMARK   48  A    between atoms: _119  and  _120
REMARK   49  A    between atoms: _125  and  _127
REMARK   50  A    between atoms: _127  and  _128
REMARK   51  A    between atoms: _127  and  _130
REMARK   52  A    between atoms: _130  and  _131
REMARK   53  A    between atoms: _134  and  _136
REMARK   54  A    between atoms: _136  and  _137
REMARK   55  A    between atoms: _136  and  _139
REMARK   56  A    between atoms: _139  and  _140
REMARK   57  A    between atoms: _145  and  _147
REMARK   58  A    between atoms: _147  and  _148
REMARK   59  A    between atoms: _147  and  _150
REMARK   60  A    between atoms: _150  and  _151
REMARK   61  A    between atoms: _156  and  _158
REMARK   62  A    between atoms: _158  and  _159
REMARK   63  A    between atoms: _158  and  _161
REMARK   64  A    between atoms: _161  and  _162
REMARK   65  A    between atoms: _167  and  _168
REMARK   66  A    between atoms: _170  and  _172
REMARK   67  A    between atoms: _172  and  _173
REMARK   68  A    between atoms: _172  and  _175
REMARK   69  A    between atoms: _175  and  _176
REMARK   70  A    between atoms: _178  and  _180
REMARK   71  A    between atoms: _180  and  _181
REMARK   72  A    between atoms: _180  and  _183
REMARK   73  A    between atoms: _183  and  _184
REMARK   74  A    between atoms: _194  and  _196
REMARK   75  A    between atoms: _196  and  _197
REMARK   76  A    between atoms: _196  and  _199
REMARK   77  A    between atoms: _199  and  _200
REMARK   78  A    between atoms: _203  and  _205
REMARK   79  A    between atoms: _205  and  _206
REMARK   80  A    between atoms: _205  and  _208
REMARK   81  A    between atoms: _208  and  _209
REMARK   82  A    between atoms: _211  and  _213
REMARK   83  A    between atoms: _213  and  _214
REMARK   84  A    between atoms: _213  and  _216
REMARK   85  A    between atoms: _216  and  _217
REMARK   86  A    between atoms: _217  and  _218
REMARK   87  A    between atoms: _221  and  _223
REMARK   88  A    between atoms: _223  and  _224
REMARK   89  A    between atoms: _223  and  _226
REMARK   90  A    between atoms: _226  and  _227
REMARK   91  A    between atoms: _232  and  _234
REMARK   92  A    between atoms: _234  and  _235
REMARK   93  A    between atoms: _237  and  _239
REMARK   94  A    between atoms: _239  and  _240
REMARK   95  A    between atoms: _239  and  _242
REMARK   96  A    between atoms: _242  and  _243
REMARK   97  A    between atoms: _243  and  _244
REMARK   98  A    between atoms: _246  and  _248
REMARK   99  A    between atoms: _248  and  _249
REMARK  100  A    between atoms: _248  and  _251
REMARK  101  A    between atoms: _251  and  _252
REMARK  102  A    between atoms: _255  and  _257
REMARK  103  A    between atoms: _257  and  _258
REMARK  104  A    between atoms: _257  and  _260
REMARK  105  A    between atoms: _260  and  _261
REMARK  106  A    between atoms: _271  and  _273
REMARK  107  A    between atoms: _273  and  _274
REMARK  108  A    between atoms: _273  and  _276
REMARK  109  A    between atoms: _276  and  _277
REMARK  110  A    between atoms: _279  and  _281
REMARK  111  A    between atoms: _281  and  _282
REMARK  112  A    between atoms: _281  and  _284
REMARK  113  A    between atoms: _284  and  _285
REMARK  114  A    between atoms: _290  and  _292
REMARK  115  A    between atoms: _292  and  _293
REMARK  116  A    between atoms: _292  and  _295
REMARK  117  A    between atoms: _295  and  _296
REMARK  118  A    between atoms: _302  and  _304
REMARK  119  A    between atoms: _304  and  _305
REMARK  120  A    between atoms: _304  and  _307
REMARK  121  A    between atoms: _307  and  _308
REMARK  122  A    between atoms: _308  and  _309
REMARK  123  A    between atoms: _312  and  _314
REMARK  124  A    between atoms: _314  and  _315
REMARK  125  A    between atoms: _314  and  _317
REMARK  126  A    between atoms: _317  and  _318
REMARK  127  A    between atoms: _328  and  _330
REMARK  128  A    between atoms: _330  and  _331
REMARK  129  A    between atoms: _330  and  _333
REMARK  130  A    between atoms: _333  and  _334
REMARK  131  A    between atoms: _334  and  _335
REMARK  132  A    between atoms: _335  and  _336
REMARK  133  A    between atoms: _345  and  _347
REMARK  134  A    between atoms: _347  and  _348
REMARK  135  A    between atoms: _347  and  _350
REMARK  136  A    between atoms: _350  and  _351
REMARK  137  A    between atoms: _354  and  _356
REMARK  138  A    between atoms: _356  and  _357
REMARK  139  A    between atoms: _356  and  _359
REMARK  140  A    between atoms: _359  and  _360
REMARK  141  A    between atoms: _362  and  _364
REMARK  142  A    between atoms: _364  and  _365
REMARK  143  A    between atoms: _364  and  _367
REMARK  144  A    between atoms: _367  and  _368
REMARK                            x       y       z     vdW  Elec       q    Type
REMARK                         _______ _______ _______ _____ _____    ______ ____
ROOT
ATOM      1  O   HOH     1      10.506   5.147  17.401  0.00  0.00    +0.000 OA
ENDROOT
TORSDOF 0
REMARK  Name = ../refined-set-2016/4re4/4re4_pocket.pdb
REMARK  144 active torsions:
REMARK  status: ('A' for Active; 'I' for Inactive)
REMARK    1  A    between atoms: _1  and  _3
REMARK    2  A    between atoms: _3  and  _4
REMARK    3  A    between atoms: _7  and  _9
REMARK    4  A    between atoms: _9  and  _10
REMARK    5  A    between atoms: _13  and  _15
REMARK    6  A    between atoms: _15  and  _16
REMARK    7  A    between atoms: _15  and  _18
REMARK    8  A    between atoms: _18  and  _19
REMARK    9  A    between atoms: _21  and  _23
REMARK   10  A    between atoms: _23  and  _24
REMARK   11  A    between atoms: _23  and  _26
REMARK   12  A    between atoms: _26  and  _27
REMARK   13  A    between atoms: _27  and  _28
REMARK   14  A    between atoms: _33  and  _35
REMARK   15  A    between atoms: _35  and  _36
REMARK   16  A    between atoms: _35  and  _38
REMARK   17  A    between atoms: _38  and  _39
REMARK   18  A    between atoms: _39  and  _40
REMARK   19  A    between atoms: _40  and  _41
REMARK   20  A    between atoms: _50  and  _52
REMARK   21  A    between atoms: _52  and  _53
REMARK   22  A    between atoms: _52  and  _55
REMARK   23  A    between atoms: _55  and  _56
REMARK   24  A    between atoms: _61  and  _63
REMARK   25  A    between atoms: _63  and  _64
REMARK   26  A    between atoms: _63  and  _66
REMARK   27  A    between atoms: _66  and  _67
REMARK   28  A    between atoms: _72  and  _74
REMARK   29  A    between atoms: _74  and  _75
REMARK   30  A    between atoms: _74  and  _77
REMARK   31  A    between atoms: _77  and  _78
REMARK   32  A    between atoms: _83  and  _84
REMARK   33  A    between atoms: _86  and  _88
REMARK   34  A    between atoms: _88  and  _89
REMARK   35  A    between atoms: _88  and  _91
REMARK   36  A    between atoms: _91  and  _92
REMARK   37  A    between atoms: _97  and  _99
REMARK   38  A    between atoms: _99  and  _100
REMARK   39  A    between atoms: _99  and  _102
REMARK   40  A    between atoms: _102  and  _103
REMARK   41  A    between atoms: _103  and  _104
REMARK   42  A    between atoms: _107  and  _109
REMARK   43  A    between atoms: _109  and  _110
REMARK   44  A    between atoms: _109  and  _112
REMARK   45  A    between atoms: _114  and  _116
REMARK   46  A    between atoms: _116  and  _117
REMARK   47  A    between atoms: _116  and  _119
REMARK   48  A    between atoms: _119  and  _120
REMARK   49  A    between atoms: _125  and  _127
REMARK   50  A    between atoms: _127  and  _128
REMARK   51  A    between atoms: _127  and  _130
REMARK   52  A    between atoms: _130  and  _131
REMARK   53  A    between atoms: _134  and  _136
REMARK   54  A    between atoms: _136  and  _137
REMARK   55  A    between atoms: _136  and  _139
REMARK   56  A    between atoms: _139  and  _140
REMARK   57  A    between atoms: _145  and  _147
REMARK   58  A    between atoms: _147  and  _148
REMARK   59  A    between atoms: _147  and  _150
REMARK   60  A    between atoms: _150  and  _151
REMARK   61  A    between atoms: _156  and  _158
REMARK   62  A    between atoms: _158  and  _159
REMARK   63  A    between atoms: _158  and  _161
REMARK   64  A    between atoms: _161  and  _162
REMARK   65  A    between atoms: _167  and  _168
REMARK   66  A    between atoms: _170  and  _172
REMARK   67  A    between atoms: _172  and  _173
REMARK   68  A    between atoms: _172  and  _175
REMARK   69  A    between atoms: _175  and  _176
REMARK   70  A    between atoms: _178  and  _180
REMARK   71  A    between atoms: _180  and  _181
REMARK   72  A    between atoms: _180  and  _183
REMARK   73  A    between atoms: _183  and  _184
REMARK   74  A    between atoms: _194  and  _196
REMARK   75  A    between atoms: _196  and  _197
REMARK   76  A    between atoms: _196  and  _199
REMARK   77  A    between atoms: _199  and  _200
REMARK   78  A    between atoms: _203  and  _205
REMARK   79  A    between atoms: _205  and  _206
REMARK   80  A    between atoms: _205  and  _208
REMARK   81  A    between atoms: _208  and  _209
REMARK   82  A    between atoms: _211  and  _213
REMARK   83  A    between atoms: _213  and  _214
REMARK   84  A    between atoms: _213  and  _216
REMARK   85  A    between atoms: _216  and  _217
REMARK   86  A    between atoms: _217  and  _218
REMARK   87  A    between atoms: _221  and  _223
REMARK   88  A    between atoms: _223  and  _224
REMARK   89  A    between atoms: _223  and  _226
REMARK   90  A    between atoms: _226  and  _227
REMARK   91  A    between atoms: _232  and  _234
REMARK   92  A    between atoms: _234  and  _235
REMARK   93  A    between atoms: _237  and  _239
REMARK   94  A    between atoms: _239  and  _240
REMARK   95  A    between atoms: _239  and  _242
REMARK   96  A    between atoms: _242  and  _243
REMARK   97  A    between atoms: _243  and  _244
REMARK   98  A    between atoms: _246  and  _248
REMARK   99  A    between atoms: _248  and  _249
REMARK  100  A    between atoms: _248  and  _251
REMARK  101  A    between atoms: _251  and  _252
REMARK  102  A    between atoms: _255  and  _257
REMARK  103  A    between atoms: _257  and  _258
REMARK  104  A    between atoms: _257  and  _260
REMARK  105  A    between atoms: _260  and  _261
REMARK  106  A    between atoms: _271  and  _273
REMARK  107  A    between atoms: _273  and  _274
REMARK  108  A    between atoms: _273  and  _276
REMARK  109  A    between atoms: _276  and  _277
REMARK  110  A    between atoms: _279  and  _281
REMARK  111  A    between atoms: _281  and  _282
REMARK  112  A    between atoms: _281  and  _284
REMARK  113  A    between atoms: _284  and  _285
REMARK  114  A    between atoms: _290  and  _292
REMARK  115  A    between atoms: _292  and  _293
REMARK  116  A    between atoms: _292  and  _295
REMARK  117  A    between atoms: _295  and  _296
REMARK  118  A    between atoms: _302  and  _304
REMARK  119  A    between atoms: _304  and  _305
REMARK  120  A    between atoms: _304  and  _307
REMARK  121  A    between atoms: _307  and  _308
REMARK  122  A    between atoms: _308  and  _309
REMARK  123  A    between atoms: _312  and  _314
REMARK  124  A    between atoms: _314  and  _315
REMARK  125  A    between atoms: _314  and  _317
REMARK  126  A    between atoms: _317  and  _318
REMARK  127  A    between atoms: _328  and  _330
REMARK  128  A    between atoms: _330  and  _331
REMARK  129  A    between atoms: _330  and  _333
REMARK  130  A    between atoms: _333  and  _334
REMARK  131  A    between atoms: _334  and  _335
REMARK  132  A    between atoms: _335  and  _336
REMARK  133  A    between atoms: _345  and  _347
REMARK  134  A    between atoms: _347  and  _348
REMARK  135  A    between atoms: _347  and  _350
REMARK  136  A    between atoms: _350  and  _351
REMARK  137  A    between atoms: _354  and  _356
REMARK  138  A    between atoms: _356  and  _357
REMARK  139  A    between atoms: _356  and  _359
REMARK  140  A    between atoms: _359  and  _360
REMARK  141  A    between atoms: _362  and  _364
REMARK  142  A    between atoms: _364  and  _365
REMARK  143  A    between atoms: _364  and  _367
REMARK  144  A    between atoms: _367  and  _368
REMARK                            x       y       z     vdW  Elec       q    Type
REMARK                         _______ _______ _______ _____ _____    ______ ____
ROOT
ATOM      1  O   HOH     1       7.707  14.946   6.313  0.00  0.00    +0.000 OA
ENDROOT
TORSDOF 0
REMARK  Name = ../refined-set-2016/4re4/4re4_pocket.pdb
REMARK  144 active torsions:
REMARK  status: ('A' for Active; 'I' for Inactive)
REMARK    1  A    between atoms: _1  and  _3
REMARK    2  A    between atoms: _3  and  _4
REMARK    3  A    between atoms: _7  and  _9
REMARK    4  A    between atoms: _9  and  _10
REMARK    5  A    between atoms: _13  and  _15
REMARK    6  A    between atoms: _15  and  _16
REMARK    7  A    between atoms: _15  and  _18
REMARK    8  A    between atoms: _18  and  _19
REMARK    9  A    between atoms: _21  and  _23
REMARK   10  A    between atoms: _23  and  _24
REMARK   11  A    between atoms: _23  and  _26
REMARK   12  A    between atoms: _26  and  _27
REMARK   13  A    between atoms: _27  and  _28
REMARK   14  A    between atoms: _33  and  _35
REMARK   15  A    between atoms: _35  and  _36
REMARK   16  A    between atoms: _35  and  _38
REMARK   17  A    between atoms: _38  and  _39
REMARK   18  A    between atoms: _39  and  _40
REMARK   19  A    between atoms: _40  and  _41
REMARK   20  A    between atoms: _50  and  _52
REMARK   21  A    between atoms: _52  and  _53
REMARK   22  A    between atoms: _52  and  _55
REMARK   23  A    between atoms: _55  and  _56
REMARK   24  A    between atoms: _61  and  _63
REMARK   25  A    between atoms: _63  and  _64
REMARK   26  A    between atoms: _63  and  _66
REMARK   27  A    between atoms: _66  and  _67
REMARK   28  A    between atoms: _72  and  _74
REMARK   29  A    between atoms: _74  and  _75
REMARK   30  A    between atoms: _74  and  _77
REMARK   31  A    between atoms: _77  and  _78
REMARK   32  A    between atoms: _83  and  _84
REMARK   33  A    between atoms: _86  and  _88
REMARK   34  A    between atoms: _88  and  _89
REMARK   35  A    between atoms: _88  and  _91
REMARK   36  A    between atoms: _91  and  _92
REMARK   37  A    between atoms: _97  and  _99
REMARK   38  A    between atoms: _99  and  _100
REMARK   39  A    between atoms: _99  and  _102
REMARK   40  A    between atoms: _102  and  _103
REMARK   41  A    between atoms: _103  and  _104
REMARK   42  A    between atoms: _107  and  _109
REMARK   43  A    between atoms: _109  and  _110
REMARK   44  A    between atoms: _109  and  _112
REMARK   45  A    between atoms: _114  and  _116
REMARK   46  A    between atoms: _116  and  _117
REMARK   47  A    between atoms: _116  and  _119
REMARK   48  A    between atoms: _119  and  _120
REMARK   49  A    between atoms: _125  and  _127
REMARK   50  A    between atoms: _127  and  _128
REMARK   51  A    between atoms: _127  and  _130
REMARK   52  A    between atoms: _130  and  _131
REMARK   53  A    between atoms: _134  and  _136
REMARK   54  A    between atoms: _136  and  _137
REMARK   55  A    between atoms: _136  and  _139
REMARK   56  A    between atoms: _139  and  _140
REMARK   57  A    between atoms: _145  and  _147
REMARK   58  A    between atoms: _147  and  _148
REMARK   59  A    between atoms: _147  and  _150
REMARK   60  A    between atoms: _150  and  _151
REMARK   61  A    between atoms: _156  and  _158
REMARK   62  A    between atoms: _158  and  _159
REMARK   63  A    between atoms: _158  and  _161
REMARK   64  A    between atoms: _161  and  _162
REMARK   65  A    between atoms: _167  and  _168
REMARK   66  A    between atoms: _170  and  _172
REMARK   67  A    between atoms: _172  and  _173
REMARK   68  A    between atoms: _172  and  _175
REMARK   69  A    between atoms: _175  and  _176
REMARK   70  A    between atoms: _178  and  _180
REMARK   71  A    between atoms: _180  and  _181
REMARK   72  A    between atoms: _180  and  _183
REMARK   73  A    between atoms: _183  and  _184
REMARK   74  A    between atoms: _194  and  _196
REMARK   75  A    between atoms: _196  and  _197
REMARK   76  A    between atoms: _196  and  _199
REMARK   77  A    between atoms: _199  and  _200
REMARK   78  A    between atoms: _203  and  _205
REMARK   79  A    between atoms: _205  and  _206
REMARK   80  A    between atoms: _205  and  _208
REMARK   81  A    between atoms: _208  and  _209
REMARK   82  A    between atoms: _211  and  _213
REMARK   83  A    between atoms: _213  and  _214
REMARK   84  A    between atoms: _213  and  _216
REMARK   85  A    between atoms: _216  and  _217
REMARK   86  A    between atoms: _217  and  _218
REMARK   87  A    between atoms: _221  and  _223
REMARK   88  A    between atoms: _223  and  _224
REMARK   89  A    between atoms: _223  and  _226
REMARK   90  A    between atoms: _226  and  _227
REMARK   91  A    between atoms: _232  and  _234
REMARK   92  A    between atoms: _234  and  _235
REMARK   93  A    between atoms: _237  and  _239
REMARK   94  A    between atoms: _239  and  _240
REMARK   95  A    between atoms: _239  and  _242
REMARK   96  A    between atoms: _242  and  _243
REMARK   97  A    between atoms: _243  and  _244
REMARK   98  A    between atoms: _246  and  _248
REMARK   99  A    between atoms: _248  and  _249
REMARK  100  A    between atoms: _248  and  _251
REMARK  101  A    between atoms: _251  and  _252
REMARK  102  A    between atoms: _255  and  _257
REMARK  103  A    between atoms: _257  and  _258
REMARK  104  A    between atoms: _257  and  _260
REMARK  105  A    between atoms: _260  and  _261
REMARK  106  A    between atoms: _271  and  _273
REMARK  107  A    between atoms: _273  and  _274
REMARK  108  A    between atoms: _273  and  _276
REMARK  109  A    between atoms: _276  and  _277
REMARK  110  A    between atoms: _279  and  _281
REMARK  111  A    between atoms: _281  and  _282
REMARK  112  A    between atoms: _281  and  _284
REMARK  113  A    between atoms: _284  and  _285
REMARK  114  A    between atoms: _290  and  _292
REMARK  115  A    between atoms: _292  and  _293
REMARK  116  A    between atoms: _292  and  _295
REMARK  117  A    between atoms: _295  and  _296
REMARK  118  A    between atoms: _302  and  _304
REMARK  119  A    between atoms: _304  and  _305
REMARK  120  A    between atoms: _304  and  _307
REMARK  121  A    between atoms: _307  and  _308
REMARK  122  A    between atoms: _308  and  _309
REMARK  123  A    between atoms: _312  and  _314
REMARK  124  A    between atoms: _314  and  _315
REMARK  125  A    between atoms: _314  and  _317
REMARK  126  A    between atoms: _317  and  _318
REMARK  127  A    between atoms: _328  and  _330
REMARK  128  A    between atoms: _330  and  _331
REMARK  129  A    between atoms: _330  and  _333
REMARK  130  A    between atoms: _333  and  _334
REMARK  131  A    between atoms: _334  and  _335
REMARK  132  A    between atoms: _335  and  _336
REMARK  133  A    between atoms: _345  and  _347
REMARK  134  A    between atoms: _347  and  _348
REMARK  135  A    between atoms: _347  and  _350
REMARK  136  A    between atoms: _350  and  _351
REMARK  137  A    between atoms: _354  and  _356
REMARK  138  A    between atoms: _356  and  _357
REMARK  139  A    between atoms: _356  and  _359
REMARK  140  A    between atoms: _359  and  _360
REMARK  141  A    between atoms: _362  and  _364
REMARK  142  A    between atoms: _364  and  _365
REMARK  143  A    between atoms: _364  and  _367
REMARK  144  A    between atoms: _367  and  _368
REMARK                            x       y       z     vdW  Elec       q    Type
REMARK                         _______ _______ _______ _____ _____    ______ ____
ROOT
ATOM      1  O   HOH     1       0.438   8.777  12.459  0.00  0.00    +0.000 OA
ENDROOT
TORSDOF 0
REMARK  Name = ../refined-set-2016/4re4/4re4_pocket.pdb
REMARK  144 active torsions:
REMARK  status: ('A' for Active; 'I' for Inactive)
REMARK    1  A    between atoms: _1  and  _3
REMARK    2  A    between atoms: _3  and  _4
REMARK    3  A    between atoms: _7  and  _9
REMARK    4  A    between atoms: _9  and  _10
REMARK    5  A    between atoms: _13  and  _15
REMARK    6  A    between atoms: _15  and  _16
REMARK    7  A    between atoms: _15  and  _18
REMARK    8  A    between atoms: _18  and  _19
REMARK    9  A    between atoms: _21  and  _23
REMARK   10  A    between atoms: _23  and  _24
REMARK   11  A    between atoms: _23  and  _26
REMARK   12  A    between atoms: _26  and  _27
REMARK   13  A    between atoms: _27  and  _28
REMARK   14  A    between atoms: _33  and  _35
REMARK   15  A    between atoms: _35  and  _36
REMARK   16  A    between atoms: _35  and  _38
REMARK   17  A    between atoms: _38  and  _39
REMARK   18  A    between atoms: _39  and  _40
REMARK   19  A    between atoms: _40  and  _41
REMARK   20  A    between atoms: _50  and  _52
REMARK   21  A    between atoms: _52  and  _53
REMARK   22  A    between atoms: _52  and  _55
REMARK   23  A    between atoms: _55  and  _56
REMARK   24  A    between atoms: _61  and  _63
REMARK   25  A    between atoms: _63  and  _64
REMARK   26  A    between atoms: _63  and  _66
REMARK   27  A    between atoms: _66  and  _67
REMARK   28  A    between atoms: _72  and  _74
REMARK   29  A    between atoms: _74  and  _75
REMARK   30  A    between atoms: _74  and  _77
REMARK   31  A    between atoms: _77  and  _78
REMARK   32  A    between atoms: _83  and  _84
REMARK   33  A    between atoms: _86  and  _88
REMARK   34  A    between atoms: _88  and  _89
REMARK   35  A    between atoms: _88  and  _91
REMARK   36  A    between atoms: _91  and  _92
REMARK   37  A    between atoms: _97  and  _99
REMARK   38  A    between atoms: _99  and  _100
REMARK   39  A    between atoms: _99  and  _102
REMARK   40  A    between atoms: _102  and  _103
REMARK   41  A    between atoms: _103  and  _104
REMARK   42  A    between atoms: _107  and  _109
REMARK   43  A    between atoms: _109  and  _110
REMARK   44  A    between atoms: _109  and  _112
REMARK   45  A    between atoms: _114  and  _116
REMARK   46  A    between atoms: _116  and  _117
REMARK   47  A    between atoms: _116  and  _119
REMARK   48  A    between atoms: _119  and  _120
REMARK   49  A    between atoms: _125  and  _127
REMARK   50  A    between atoms: _127  and  _128
REMARK   51  A    between atoms: _127  and  _130
REMARK   52  A    between atoms: _130  and  _131
REMARK   53  A    between atoms: _134  and  _136
REMARK   54  A    between atoms: _136  and  _137
REMARK   55  A    between atoms: _136  and  _139
REMARK   56  A    between atoms: _139  and  _140
REMARK   57  A    between atoms: _145  and  _147
REMARK   58  A    between atoms: _147  and  _148
REMARK   59  A    between atoms: _147  and  _150
REMARK   60  A    between atoms: _150  and  _151
REMARK   61  A    between atoms: _156  and  _158
REMARK   62  A    between atoms: _158  and  _159
REMARK   63  A    between atoms: _158  and  _161
REMARK   64  A    between atoms: _161  and  _162
REMARK   65  A    between atoms: _167  and  _168
REMARK   66  A    between atoms: _170  and  _172
REMARK   67  A    between atoms: _172  and  _173
REMARK   68  A    between atoms: _172  and  _175
REMARK   69  A    between atoms: _175  and  _176
REMARK   70  A    between atoms: _178  and  _180
REMARK   71  A    between atoms: _180  and  _181
REMARK   72  A    between atoms: _180  and  _183
REMARK   73  A    between atoms: _183  and  _184
REMARK   74  A    between atoms: _194  and  _196
REMARK   75  A    between atoms: _196  and  _197
REMARK   76  A    between atoms: _196  and  _199
REMARK   77  A    between atoms: _199  and  _200
REMARK   78  A    between atoms: _203  and  _205
REMARK   79  A    between atoms: _205  and  _206
REMARK   80  A    between atoms: _205  and  _208
REMARK   81  A    between atoms: _208  and  _209
REMARK   82  A    between atoms: _211  and  _213
REMARK   83  A    between atoms: _213  and  _214
REMARK   84  A    between atoms: _213  and  _216
REMARK   85  A    between atoms: _216  and  _217
REMARK   86  A    between atoms: _217  and  _218
REMARK   87  A    between atoms: _221  and  _223
REMARK   88  A    between atoms: _223  and  _224
REMARK   89  A    between atoms: _223  and  _226
REMARK   90  A    between atoms: _226  and  _227
REMARK   91  A    between atoms: _232  and  _234
REMARK   92  A    between atoms: _234  and  _235
REMARK   93  A    between atoms: _237  and  _239
REMARK   94  A    between atoms: _239  and  _240
REMARK   95  A    between atoms: _239  and  _242
REMARK   96  A    between atoms: _242  and  _243
REMARK   97  A    between atoms: _243  and  _244
REMARK   98  A    between atoms: _246  and  _248
REMARK   99  A    between atoms: _248  and  _249
REMARK  100  A    between atoms: _248  and  _251
REMARK  101  A    between atoms: _251  and  _252
REMARK  102  A    between atoms: _255  and  _257
REMARK  103  A    between atoms: _257  and  _258
REMARK  104  A    between atoms: _257  and  _260
REMARK  105  A    between atoms: _260  and  _261
REMARK  106  A    between atoms: _271  and  _273
REMARK  107  A    between atoms: _273  and  _274
REMARK  108  A    between atoms: _273  and  _276
REMARK  109  A    between atoms: _276  and  _277
REMARK  110  A    between atoms: _279  and  _281
REMARK  111  A    between atoms: _281  and  _282
REMARK  112  A    between atoms: _281  and  _284
REMARK  113  A    between atoms: _284  and  _285
REMARK  114  A    between atoms: _290  and  _292
REMARK  115  A    between atoms: _292  and  _293
REMARK  116  A    between atoms: _292  and  _295
REMARK  117  A    between atoms: _295  and  _296
REMARK  118  A    between atoms: _302  and  _304
REMARK  119  A    between atoms: _304  and  _305
REMARK  120  A    between atoms: _304  and  _307
REMARK  121  A    between atoms: _307  and  _308
REMARK  122  A    between atoms: _308  and  _309
REMARK  123  A    between atoms: _312  and  _314
REMARK  124  A    between atoms: _314  and  _315
REMARK  125  A    between atoms: _314  and  _317
REMARK  126  A    between atoms: _317  and  _318
REMARK  127  A    between atoms: _328  and  _330
REMARK  128  A    between atoms: _330  and  _331
REMARK  129  A    between atoms: _330  and  _333
REMARK  130  A    between atoms: _333  and  _334
REMARK  131  A    between atoms: _334  and  _335
REMARK  132  A    between atoms: _335  and  _336
REMARK  133  A    between atoms: _345  and  _347
REMARK  134  A    between atoms: _347  and  _348
REMARK  135  A    between atoms: _347  and  _350
REMARK  136  A    between atoms: _350  and  _351
REMARK  137  A    between atoms: _354  and  _356
REMARK  138  A    between atoms: _356  and  _357
REMARK  139  A    between atoms: _356  and  _359
REMARK  140  A    between atoms: _359  and  _360
REMARK  141  A    between atoms: _362  and  _364
REMARK  142  A    between atoms: _364  and  _365
REMARK  143  A    between atoms: _364  and  _367
REMARK  144  A    between atoms: _367  and  _368
REMARK                            x       y       z     vdW  Elec       q    Type
REMARK                         _______ _______ _______ _____ _____    ______ ____
ROOT
ATOM      1  O   HOH     1       3.637  18.216  14.729  0.00  0.00    +0.000 OA
ENDROOT
TORSDOF 0
REMARK  Name = ../refined-set-2016/4re4/4re4_pocket.pdb
REMARK  144 active torsions:
REMARK  status: ('A' for Active; 'I' for Inactive)
REMARK    1  A    between atoms: _1  and  _3
REMARK    2  A    between atoms: _3  and  _4
REMARK    3  A    between atoms: _7  and  _9
REMARK    4  A    between atoms: _9  and  _10
REMARK    5  A    between atoms: _13  and  _15
REMARK    6  A    between atoms: _15  and  _16
REMARK    7  A    between atoms: _15  and  _18
REMARK    8  A    between atoms: _18  and  _19
REMARK    9  A    between atoms: _21  and  _23
REMARK   10  A    between atoms: _23  and  _24
REMARK   11  A    between atoms: _23  and  _26
REMARK   12  A    between atoms: _26  and  _27
REMARK   13  A    between atoms: _27  and  _28
REMARK   14  A    between atoms: _33  and  _35
REMARK   15  A    between atoms: _35  and  _36
REMARK   16  A    between atoms: _35  and  _38
REMARK   17  A    between atoms: _38  and  _39
REMARK   18  A    between atoms: _39  and  _40
REMARK   19  A    between atoms: _40  and  _41
REMARK   20  A    between atoms: _50  and  _52
REMARK   21  A    between atoms: _52  and  _53
REMARK   22  A    between atoms: _52  and  _55
REMARK   23  A    between atoms: _55  and  _56
REMARK   24  A    between atoms: _61  and  _63
REMARK   25  A    between atoms: _63  and  _64
REMARK   26  A    between atoms: _63  and  _66
REMARK   27  A    between atoms: _66  and  _67
REMARK   28  A    between atoms: _72  and  _74
REMARK   29  A    between atoms: _74  and  _75
REMARK   30  A    between atoms: _74  and  _77
REMARK   31  A    between atoms: _77  and  _78
REMARK   32  A    between atoms: _83  and  _84
REMARK   33  A    between atoms: _86  and  _88
REMARK   34  A    between atoms: _88  and  _89
REMARK   35  A    between atoms: _88  and  _91
REMARK   36  A    between atoms: _91  and  _92
REMARK   37  A    between atoms: _97  and  _99
REMARK   38  A    between atoms: _99  and  _100
REMARK   39  A    between atoms: _99  and  _102
REMARK   40  A    between atoms: _102  and  _103
REMARK   41  A    between atoms: _103  and  _104
REMARK   42  A    between atoms: _107  and  _109
REMARK   43  A    between atoms: _109  and  _110
REMARK   44  A    between atoms: _109  and  _112
REMARK   45  A    between atoms: _114  and  _116
REMARK   46  A    between atoms: _116  and  _117
REMARK   47  A    between atoms: _116  and  _119
REMARK   48  A    between atoms: _119  and  _120
REMARK   49  A    between atoms: _125  and  _127
REMARK   50  A    between atoms: _127  and  _128
REMARK   51  A    between atoms: _127  and  _130
REMARK   52  A    between atoms: _130  and  _131
REMARK   53  A    between atoms: _134  and  _136
REMARK   54  A    between atoms: _136  and  _137
REMARK   55  A    between atoms: _136  and  _139
REMARK   56  A    between atoms: _139  and  _140
REMARK   57  A    between atoms: _145  and  _147
REMARK   58  A    between atoms: _147  and  _148
REMARK   59  A    between atoms: _147  and  _150
REMARK   60  A    between atoms: _150  and  _151
REMARK   61  A    between atoms: _156  and  _158
REMARK   62  A    between atoms: _158  and  _159
REMARK   63  A    between atoms: _158  and  _161
REMARK   64  A    between atoms: _161  and  _162
REMARK   65  A    between atoms: _167  and  _168
REMARK   66  A    between atoms: _170  and  _172
REMARK   67  A    between atoms: _172  and  _173
REMARK   68  A    between atoms: _172  and  _175
REMARK   69  A    between atoms: _175  and  _176
REMARK   70  A    between atoms: _178  and  _180
REMARK   71  A    between atoms: _180  and  _181
REMARK   72  A    between atoms: _180  and  _183
REMARK   73  A    between atoms: _183  and  _184
REMARK   74  A    between atoms: _194  and  _196
REMARK   75  A    between atoms: _196  and  _197
REMARK   76  A    between atoms: _196  and  _199
REMARK   77  A    between atoms: _199  and  _200
REMARK   78  A    between atoms: _203  and  _205
REMARK   79  A    between atoms: _205  and  _206
REMARK   80  A    between atoms: _205  and  _208
REMARK   81  A    between atoms: _208  and  _209
REMARK   82  A    between atoms: _211  and  _213
REMARK   83  A    between atoms: _213  and  _214
REMARK   84  A    between atoms: _213  and  _216
REMARK   85  A    between atoms: _216  and  _217
REMARK   86  A    between atoms: _217  and  _218
REMARK   87  A    between atoms: _221  and  _223
REMARK   88  A    between atoms: _223  and  _224
REMARK   89  A    between atoms: _223  and  _226
REMARK   90  A    between atoms: _226  and  _227
REMARK   91  A    between atoms: _232  and  _234
REMARK   92  A    between atoms: _234  and  _235
REMARK   93  A    between atoms: _237  and  _239
REMARK   94  A    between atoms: _239  and  _240
REMARK   95  A    between atoms: _239  and  _242
REMARK   96  A    between atoms: _242  and  _243
REMARK   97  A    between atoms: _243  and  _244
REMARK   98  A    between atoms: _246  and  _248
REMARK   99  A    between atoms: _248  and  _249
REMARK  100  A    between atoms: _248  and  _251
REMARK  101  A    between atoms: _251  and  _252
REMARK  102  A    between atoms: _255  and  _257
REMARK  103  A    between atoms: _257  and  _258
REMARK  104  A    between atoms: _257  and  _260
REMARK  105  A    between atoms: _260  and  _261
REMARK  106  A    between atoms: _271  and  _273
REMARK  107  A    between atoms: _273  and  _274
REMARK  108  A    between atoms: _273  and  _276
REMARK  109  A    between atoms: _276  and  _277
REMARK  110  A    between atoms: _279  and  _281
REMARK  111  A    between atoms: _281  and  _282
REMARK  112  A    between atoms: _281  and  _284
REMARK  113  A    between atoms: _284  and  _285
REMARK  114  A    between atoms: _290  and  _292
REMARK  115  A    between atoms: _292  and  _293
REMARK  116  A    between atoms: _292  and  _295
REMARK  117  A    between atoms: _295  and  _296
REMARK  118  A    between atoms: _302  and  _304
REMARK  119  A    between atoms: _304  and  _305
REMARK  120  A    between atoms: _304  and  _307
REMARK  121  A    between atoms: _307  and  _308
REMARK  122  A    between atoms: _308  and  _309
REMARK  123  A    between atoms: _312  and  _314
REMARK  124  A    between atoms: _314  and  _315
REMARK  125  A    between atoms: _314  and  _317
REMARK  126  A    between atoms: _317  and  _318
REMARK  127  A    between atoms: _328  and  _330
REMARK  128  A    between atoms: _330  and  _331
REMARK  129  A    between atoms: _330  and  _333
REMARK  130  A    between atoms: _333  and  _334
REMARK  131  A    between atoms: _334  and  _335
REMARK  132  A    between atoms: _335  and  _336
REMARK  133  A    between atoms: _345  and  _347
REMARK  134  A    between atoms: _347  and  _348
REMARK  135  A    between atoms: _347  and  _350
REMARK  136  A    between atoms: _350  and  _351
REMARK  137  A    between atoms: _354  and  _356
REMARK  138  A    between atoms: _356  and  _357
REMARK  139  A    between atoms: _356  and  _359
REMARK  140  A    between atoms: _359  and  _360
REMARK  141  A    between atoms: _362  and  _364
REMARK  142  A    between atoms: _364  and  _365
REMARK  143  A    between atoms: _364  and  _367
REMARK  144  A    between atoms: _367  and  _368
REMARK                            x       y       z     vdW  Elec       q    Type
REMARK                         _______ _______ _______ _____ _____    ______ ____
ROOT
ATOM      1  O   HOH     1       5.984  11.959   8.040  0.00  0.00    +0.000 OA
ENDROOT
TORSDOF 0
REMARK  Name = ../refined-set-2016/4re4/4re4_pocket.pdb
REMARK  144 active torsions:
REMARK  status: ('A' for Active; 'I' for Inactive)
REMARK    1  A    between atoms: _1  and  _3
REMARK    2  A    between atoms: _3  and  _4
REMARK    3  A    between atoms: _7  and  _9
REMARK    4  A    between atoms: _9  and  _10
REMARK    5  A    between atoms: _13  and  _15
REMARK    6  A    between atoms: _15  and  _16
REMARK    7  A    between atoms: _15  and  _18
REMARK    8  A    between atoms: _18  and  _19
REMARK    9  A    between atoms: _21  and  _23
REMARK   10  A    between atoms: _23  and  _24
REMARK   11  A    between atoms: _23  and  _26
REMARK   12  A    between atoms: _26  and  _27
REMARK   13  A    between atoms: _27  and  _28
REMARK   14  A    between atoms: _33  and  _35
REMARK   15  A    between atoms: _35  and  _36
REMARK   16  A    between atoms: _35  and  _38
REMARK   17  A    between atoms: _38  and  _39
REMARK   18  A    between atoms: _39  and  _40
REMARK   19  A    between atoms: _40  and  _41
REMARK   20  A    between atoms: _50  and  _52
REMARK   21  A    between atoms: _52  and  _53
REMARK   22  A    between atoms: _52  and  _55
REMARK   23  A    between atoms: _55  and  _56
REMARK   24  A    between atoms: _61  and  _63
REMARK   25  A    between atoms: _63  and  _64
REMARK   26  A    between atoms: _63  and  _66
REMARK   27  A    between atoms: _66  and  _67
REMARK   28  A    between atoms: _72  and  _74
REMARK   29  A    between atoms: _74  and  _75
REMARK   30  A    between atoms: _74  and  _77
REMARK   31  A    between atoms: _77  and  _78
REMARK   32  A    between atoms: _83  and  _84
REMARK   33  A    between atoms: _86  and  _88
REMARK   34  A    between atoms: _88  and  _89
REMARK   35  A    between atoms: _88  and  _91
REMARK   36  A    between atoms: _91  and  _92
REMARK   37  A    between atoms: _97  and  _99
REMARK   38  A    between atoms: _99  and  _100
REMARK   39  A    between atoms: _99  and  _102
REMARK   40  A    between atoms: _102  and  _103
REMARK   41  A    between atoms: _103  and  _104
REMARK   42  A    between atoms: _107  and  _109
REMARK   43  A    between atoms: _109  and  _110
REMARK   44  A    between atoms: _109  and  _112
REMARK   45  A    between atoms: _114  and  _116
REMARK   46  A    between atoms: _116  and  _117
REMARK   47  A    between atoms: _116  and  _119
REMARK   48  A    between atoms: _119  and  _120
REMARK   49  A    between atoms: _125  and  _127
REMARK   50  A    between atoms: _127  and  _128
REMARK   51  A    between atoms: _127  and  _130
REMARK   52  A    between atoms: _130  and  _131
REMARK   53  A    between atoms: _134  and  _136
REMARK   54  A    between atoms: _136  and  _137
REMARK   55  A    between atoms: _136  and  _139
REMARK   56  A    between atoms: _139  and  _140
REMARK   57  A    between atoms: _145  and  _147
REMARK   58  A    between atoms: _147  and  _148
REMARK   59  A    between atoms: _147  and  _150
REMARK   60  A    between atoms: _150  and  _151
REMARK   61  A    between atoms: _156  and  _158
REMARK   62  A    between atoms: _158  and  _159
REMARK   63  A    between atoms: _158  and  _161
REMARK   64  A    between atoms: _161  and  _162
REMARK   65  A    between atoms: _167  and  _168
REMARK   66  A    between atoms: _170  and  _172
REMARK   67  A    between atoms: _172  and  _173
REMARK   68  A    between atoms: _172  and  _175
REMARK   69  A    between atoms: _175  and  _176
REMARK   70  A    between atoms: _178  and  _180
REMARK   71  A    between atoms: _180  and  _181
REMARK   72  A    between atoms: _180  and  _183
REMARK   73  A    between atoms: _183  and  _184
REMARK   74  A    between atoms: _194  and  _196
REMARK   75  A    between atoms: _196  and  _197
REMARK   76  A    between atoms: _196  and  _199
REMARK   77  A    between atoms: _199  and  _200
REMARK   78  A    between atoms: _203  and  _205
REMARK   79  A    between atoms: _205  and  _206
REMARK   80  A    between atoms: _205  and  _208
REMARK   81  A    between atoms: _208  and  _209
REMARK   82  A    between atoms: _211  and  _213
REMARK   83  A    between atoms: _213  and  _214
REMARK   84  A    between atoms: _213  and  _216
REMARK   85  A    between atoms: _216  and  _217
REMARK   86  A    between atoms: _217  and  _218
REMARK   87  A    between atoms: _221  and  _223
REMARK   88  A    between atoms: _223  and  _224
REMARK   89  A    between atoms: _223  and  _226
REMARK   90  A    between atoms: _226  and  _227
REMARK   91  A    between atoms: _232  and  _234
REMARK   92  A    between atoms: _234  and  _235
REMARK   93  A    between atoms: _237  and  _239
REMARK   94  A    between atoms: _239  and  _240
REMARK   95  A    between atoms: _239  and  _242
REMARK   96  A    between atoms: _242  and  _243
REMARK   97  A    between atoms: _243  and  _244
REMARK   98  A    between atoms: _246  and  _248
REMARK   99  A    between atoms: _248  and  _249
REMARK  100  A    between atoms: _248  and  _251
REMARK  101  A    between atoms: _251  and  _252
REMARK  102  A    between atoms: _255  and  _257
REMARK  103  A    between atoms: _257  and  _258
REMARK  104  A    between atoms: _257  and  _260
REMARK  105  A    between atoms: _260  and  _261
REMARK  106  A    between atoms: _271  and  _273
REMARK  107  A    between atoms: _273  and  _274
REMARK  108  A    between atoms: _273  and  _276
REMARK  109  A    between atoms: _276  and  _277
REMARK  110  A    between atoms: _279  and  _281
REMARK  111  A    between atoms: _281  and  _282
REMARK  112  A    between atoms: _281  and  _284
REMARK  113  A    between atoms: _284  and  _285
REMARK  114  A    between atoms: _290  and  _292
REMARK  115  A    between atoms: _292  and  _293
REMARK  116  A    between atoms: _292  and  _295
REMARK  117  A    between atoms: _295  and  _296
REMARK  118  A    between atoms: _302  and  _304
REMARK  119  A    between atoms: _304  and  _305
REMARK  120  A    between atoms: _304  and  _307
REMARK  121  A    between atoms: _307  and  _308
REMARK  122  A    between atoms: _308  and  _309
REMARK  123  A    between atoms: _312  and  _314
REMARK  124  A    between atoms: _314  and  _315
REMARK  125  A    between atoms: _314  and  _317
REMARK  126  A    between atoms: _317  and  _318
REMARK  127  A    between atoms: _328  and  _330
REMARK  128  A    between atoms: _330  and  _331
REMARK  129  A    between atoms: _330  and  _333
REMARK  130  A    between atoms: _333  and  _334
REMARK  131  A    between atoms: _334  and  _335
REMARK  132  A    between atoms: _335  and  _336
REMARK  133  A    between atoms: _345  and  _347
REMARK  134  A    between atoms: _347  and  _348
REMARK  135  A    between atoms: _347  and  _350
REMARK  136  A    between atoms: _350  and  _351
REMARK  137  A    between atoms: _354  and  _356
REMARK  138  A    between atoms: _356  and  _357
REMARK  139  A    between atoms: _356  and  _359
REMARK  140  A    between atoms: _359  and  _360
REMARK  141  A    between atoms: _362  and  _364
REMARK  142  A    between atoms: _364  and  _365
REMARK  143  A    between atoms: _364  and  _367
REMARK  144  A    between atoms: _367  and  _368
REMARK                            x       y       z     vdW  Elec       q    Type
REMARK                         _______ _______ _______ _____ _____    ______ ____
ROOT
ATOM      1  O   HOH     1       6.962  18.487  15.021  0.00  0.00    +0.000 OA
ENDROOT
TORSDOF 0
REMARK  Name = ../refined-set-2016/4re4/4re4_pocket.pdb
REMARK  144 active torsions:
REMARK  status: ('A' for Active; 'I' for Inactive)
REMARK    1  A    between atoms: _1  and  _3
REMARK    2  A    between atoms: _3  and  _4
REMARK    3  A    between atoms: _7  and  _9
REMARK    4  A    between atoms: _9  and  _10
REMARK    5  A    between atoms: _13  and  _15
REMARK    6  A    between atoms: _15  and  _16
REMARK    7  A    between atoms: _15  and  _18
REMARK    8  A    between atoms: _18  and  _19
REMARK    9  A    between atoms: _21  and  _23
REMARK   10  A    between atoms: _23  and  _24
REMARK   11  A    between atoms: _23  and  _26
REMARK   12  A    between atoms: _26  and  _27
REMARK   13  A    between atoms: _27  and  _28
REMARK   14  A    between atoms: _33  and  _35
REMARK   15  A    between atoms: _35  and  _36
REMARK   16  A    between atoms: _35  and  _38
REMARK   17  A    between atoms: _38  and  _39
REMARK   18  A    between atoms: _39  and  _40
REMARK   19  A    between atoms: _40  and  _41
REMARK   20  A    between atoms: _50  and  _52
REMARK   21  A    between atoms: _52  and  _53
REMARK   22  A    between atoms: _52  and  _55
REMARK   23  A    between atoms: _55  and  _56
REMARK   24  A    between atoms: _61  and  _63
REMARK   25  A    between atoms: _63  and  _64
REMARK   26  A    between atoms: _63  and  _66
REMARK   27  A    between atoms: _66  and  _67
REMARK   28  A    between atoms: _72  and  _74
REMARK   29  A    between atoms: _74  and  _75
REMARK   30  A    between atoms: _74  and  _77
REMARK   31  A    between atoms: _77  and  _78
REMARK   32  A    between atoms: _83  and  _84
REMARK   33  A    between atoms: _86  and  _88
REMARK   34  A    between atoms: _88  and  _89
REMARK   35  A    between atoms: _88  and  _91
REMARK   36  A    between atoms: _91  and  _92
REMARK   37  A    between atoms: _97  and  _99
REMARK   38  A    between atoms: _99  and  _100
REMARK   39  A    between atoms: _99  and  _102
REMARK   40  A    between atoms: _102  and  _103
REMARK   41  A    between atoms: _103  and  _104
REMARK   42  A    between atoms: _107  and  _109
REMARK   43  A    between atoms: _109  and  _110
REMARK   44  A    between atoms: _109  and  _112
REMARK   45  A    between atoms: _114  and  _116
REMARK   46  A    between atoms: _116  and  _117
REMARK   47  A    between atoms: _116  and  _119
REMARK   48  A    between atoms: _119  and  _120
REMARK   49  A    between atoms: _125  and  _127
REMARK   50  A    between atoms: _127  and  _128
REMARK   51  A    between atoms: _127  and  _130
REMARK   52  A    between atoms: _130  and  _131
REMARK   53  A    between atoms: _134  and  _136
REMARK   54  A    between atoms: _136  and  _137
REMARK   55  A    between atoms: _136  and  _139
REMARK   56  A    between atoms: _139  and  _140
REMARK   57  A    between atoms: _145  and  _147
REMARK   58  A    between atoms: _147  and  _148
REMARK   59  A    between atoms: _147  and  _150
REMARK   60  A    between atoms: _150  and  _151
REMARK   61  A    between atoms: _156  and  _158
REMARK   62  A    between atoms: _158  and  _159
REMARK   63  A    between atoms: _158  and  _161
REMARK   64  A    between atoms: _161  and  _162
REMARK   65  A    between atoms: _167  and  _168
REMARK   66  A    between atoms: _170  and  _172
REMARK   67  A    between atoms: _172  and  _173
REMARK   68  A    between atoms: _172  and  _175
REMARK   69  A    between atoms: _175  and  _176
REMARK   70  A    between atoms: _178  and  _180
REMARK   71  A    between atoms: _180  and  _181
REMARK   72  A    between atoms: _180  and  _183
REMARK   73  A    between atoms: _183  and  _184
REMARK   74  A    between atoms: _194  and  _196
REMARK   75  A    between atoms: _196  and  _197
REMARK   76  A    between atoms: _196  and  _199
REMARK   77  A    between atoms: _199  and  _200
REMARK   78  A    between atoms: _203  and  _205
REMARK   79  A    between atoms: _205  and  _206
REMARK   80  A    between atoms: _205  and  _208
REMARK   81  A    between atoms: _208  and  _209
REMARK   82  A    between atoms: _211  and  _213
REMARK   83  A    between atoms: _213  and  _214
REMARK   84  A    between atoms: _213  and  _216
REMARK   85  A    between atoms: _216  and  _217
REMARK   86  A    between atoms: _217  and  _218
REMARK   87  A    between atoms: _221  and  _223
REMARK   88  A    between atoms: _223  and  _224
REMARK   89  A    between atoms: _223  and  _226
REMARK   90  A    between atoms: _226  and  _227
REMARK   91  A    between atoms: _232  and  _234
REMARK   92  A    between atoms: _234  and  _235
REMARK   93  A    between atoms: _237  and  _239
REMARK   94  A    between atoms: _239  and  _240
REMARK   95  A    between atoms: _239  and  _242
REMARK   96  A    between atoms: _242  and  _243
REMARK   97  A    between atoms: _243  and  _244
REMARK   98  A    between atoms: _246  and  _248
REMARK   99  A    between atoms: _248  and  _249
REMARK  100  A    between atoms: _248  and  _251
REMARK  101  A    between atoms: _251  and  _252
REMARK  102  A    between atoms: _255  and  _257
REMARK  103  A    between atoms: _257  and  _258
REMARK  104  A    between atoms: _257  and  _260
REMARK  105  A    between atoms: _260  and  _261
REMARK  106  A    between atoms: _271  and  _273
REMARK  107  A    between atoms: _273  and  _274
REMARK  108  A    between atoms: _273  and  _276
REMARK  109  A    between atoms: _276  and  _277
REMARK  110  A    between atoms: _279  and  _281
REMARK  111  A    between atoms: _281  and  _282
REMARK  112  A    between atoms: _281  and  _284
REMARK  113  A    between atoms: _284  and  _285
REMARK  114  A    between atoms: _290  and  _292
REMARK  115  A    between atoms: _292  and  _293
REMARK  116  A    between atoms: _292  and  _295
REMARK  117  A    between atoms: _295  and  _296
REMARK  118  A    between atoms: _302  and  _304
REMARK  119  A    between atoms: _304  and  _305
REMARK  120  A    between atoms: _304  and  _307
REMARK  121  A    between atoms: _307  and  _308
REMARK  122  A    between atoms: _308  and  _309
REMARK  123  A    between atoms: _312  and  _314
REMARK  124  A    between atoms: _314  and  _315
REMARK  125  A    between atoms: _314  and  _317
REMARK  126  A    between atoms: _317  and  _318
REMARK  127  A    between atoms: _328  and  _330
REMARK  128  A    between atoms: _330  and  _331
REMARK  129  A    between atoms: _330  and  _333
REMARK  130  A    between atoms: _333  and  _334
REMARK  131  A    between atoms: _334  and  _335
REMARK  132  A    between atoms: _335  and  _336
REMARK  133  A    between atoms: _345  and  _347
REMARK  134  A    between atoms: _347  and  _348
REMARK  135  A    between atoms: _347  and  _350
REMARK  136  A    between atoms: _350  and  _351
REMARK  137  A    between atoms: _354  and  _356
REMARK  138  A    between atoms: _356  and  _357
REMARK  139  A    between atoms: _356  and  _359
REMARK  140  A    between atoms: _359  and  _360
REMARK  141  A    between atoms: _362  and  _364
REMARK  142  A    between atoms: _364  and  _365
REMARK  143  A    between atoms: _364  and  _367
REMARK  144  A    between atoms: _367  and  _368
REMARK                            x       y       z     vdW  Elec       q    Type
REMARK                         _______ _______ _______ _____ _____    ______ ____
ROOT
ATOM      1  O   HOH     1       7.225  15.774  14.488  0.00  0.00    +0.000 OA
ENDROOT
TORSDOF 0
