REMARK  Name = ../refined-set-2016/3e3c/3e3c_pocket.pdb
REMARK  241 active torsions:
REMARK  status: ('A' for Active; 'I' for Inactive)
REMARK    1  A    between atoms: _1  and  _3
REMARK    2  A    between atoms: _3  and  _4
REMARK    3  A    between atoms: _3  and  _6
REMARK    4  A    between atoms: _6  and  _7
REMARK    5  A    between atoms: _9  and  _11
REMARK    6  A    between atoms: _11  and  _12
REMARK    7  A    between atoms: _11  and  _14
REMARK    8  A    between atoms: _14  and  _15
REMARK    9  A    between atoms: _15  and  _16
REMARK   10  A    between atoms: _18  and  _20
REMARK   11  A    between atoms: _20  and  _21
REMARK   12  A    between atoms: _20  and  _23
REMARK   13  A    between atoms: _23  and  _24
REMARK   14  A    between atoms: _27  and  _29
REMARK   15  A    between atoms: _29  and  _30
REMARK   16  A    between atoms: _29  and  _32
REMARK   17  A    between atoms: _32  and  _33
REMARK   18  A    between atoms: _36  and  _38
REMARK   19  A    between atoms: _38  and  _39
REMARK   20  A    between atoms: _38  and  _41
REMARK   21  A    between atoms: _41  and  _42
REMARK   22  A    between atoms: _48  and  _50
REMARK   23  A    between atoms: _50  and  _51
REMARK   24  A    between atoms: _50  and  _53
REMARK   25  A    between atoms: _53  and  _54
REMARK   26  A    between atoms: _57  and  _59
REMARK   27  A    between atoms: _59  and  _60
REMARK   28  A    between atoms: _59  and  _62
REMARK   29  A    between atoms: _62  and  _63
REMARK   30  A    between atoms: _65  and  _67
REMARK   31  A    between atoms: _67  and  _68
REMARK   32  A    between atoms: _67  and  _70
REMARK   33  A    between atoms: _70  and  _71
REMARK   34  A    between atoms: _73  and  _75
REMARK   35  A    between atoms: _75  and  _76
REMARK   36  A    between atoms: _75  and  _78
REMARK   37  A    between atoms: _80  and  _82
REMARK   38  A    between atoms: _82  and  _83
REMARK   39  A    between atoms: _85  and  _87
REMARK   40  A    between atoms: _87  and  _88
REMARK   41  A    between atoms: _87  and  _90
REMARK   42  A    between atoms: _90  and  _91
REMARK   43  A    between atoms: _91  and  _92
REMARK   44  A    between atoms: _95  and  _97
REMARK   45  A    between atoms: _97  and  _98
REMARK   46  A    between atoms: _100  and  _102
REMARK   47  A    between atoms: _102  and  _103
REMARK   48  A    between atoms: _102  and  _105
REMARK   49  A    between atoms: _105  and  _106
REMARK   50  A    between atoms: _109  and  _111
REMARK   51  A    between atoms: _111  and  _112
REMARK   52  A    between atoms: _111  and  _114
REMARK   53  A    between atoms: _114  and  _115
REMARK   54  A    between atoms: _118  and  _120
REMARK   55  A    between atoms: _120  and  _121
REMARK   56  A    between atoms: _120  and  _123
REMARK   57  A    between atoms: _123  and  _124
REMARK   58  A    between atoms: _127  and  _129
REMARK   59  A    between atoms: _129  and  _130
REMARK   60  A    between atoms: _129  and  _132
REMARK   61  A    between atoms: _132  and  _133
REMARK   62  A    between atoms: _133  and  _134
REMARK   63  A    between atoms: _134  and  _135
REMARK   64  A    between atoms: _135  and  _136
REMARK   65  A    between atoms: _140  and  _142
REMARK   66  A    between atoms: _142  and  _143
REMARK   67  A    between atoms: _142  and  _145
REMARK   68  A    between atoms: _145  and  _146
REMARK   69  A    between atoms: _149  and  _151
REMARK   70  A    between atoms: _151  and  _152
REMARK   71  A    between atoms: _151  and  _154
REMARK   72  A    between atoms: _154  and  _155
REMARK   73  A    between atoms: _158  and  _160
REMARK   74  A    between atoms: _160  and  _161
REMARK   75  A    between atoms: _163  and  _165
REMARK   76  A    between atoms: _165  and  _166
REMARK   77  A    between atoms: _168  and  _170
REMARK   78  A    between atoms: _170  and  _171
REMARK   79  A    between atoms: _170  and  _173
REMARK   80  A    between atoms: _173  and  _174
REMARK   81  A    between atoms: _177  and  _179
REMARK   82  A    between atoms: _179  and  _180
REMARK   83  A    between atoms: _179  and  _182
REMARK   84  A    between atoms: _182  and  _183
REMARK   85  A    between atoms: _186  and  _188
REMARK   86  A    between atoms: _188  and  _189
REMARK   87  A    between atoms: _192  and  _194
REMARK   88  A    between atoms: _194  and  _195
REMARK   89  A    between atoms: _194  and  _197
REMARK   90  A    between atoms: _197  and  _198
REMARK   91  A    between atoms: _200  and  _202
REMARK   92  A    between atoms: _202  and  _203
REMARK   93  A    between atoms: _202  and  _205
REMARK   94  A    between atoms: _208  and  _210
REMARK   95  A    between atoms: _210  and  _211
REMARK   96  A    between atoms: _210  and  _213
REMARK   97  A    between atoms: _213  and  _214
REMARK   98  A    between atoms: _219  and  _220
REMARK   99  A    between atoms: _222  and  _224
REMARK  100  A    between atoms: _224  and  _225
REMARK  101  A    between atoms: _224  and  _227
REMARK  102  A    between atoms: _227  and  _228
REMARK  103  A    between atoms: _228  and  _229
REMARK  104  A    between atoms: _234  and  _236
REMARK  105  A    between atoms: _236  and  _237
REMARK  106  A    between atoms: _239  and  _241
REMARK  107  A    between atoms: _241  and  _242
REMARK  108  A    between atoms: _241  and  _244
REMARK  109  A    between atoms: _244  and  _245
REMARK  110  A    between atoms: _248  and  _250
REMARK  111  A    between atoms: _250  and  _251
REMARK  112  A    between atoms: _250  and  _253
REMARK  113  A    between atoms: _253  and  _254
REMARK  114  A    between atoms: _257  and  _259
REMARK  115  A    between atoms: _259  and  _260
REMARK  116  A    between atoms: _259  and  _262
REMARK  117  A    between atoms: _262  and  _263
REMARK  118  A    between atoms: _266  and  _268
REMARK  119  A    between atoms: _268  and  _269
REMARK  120  A    between atoms: _268  and  _271
REMARK  121  A    between atoms: _271  and  _272
REMARK  122  A    between atoms: _277  and  _279
REMARK  123  A    between atoms: _279  and  _280
REMARK  124  A    between atoms: _279  and  _282
REMARK  125  A    between atoms: _285  and  _287
REMARK  126  A    between atoms: _287  and  _288
REMARK  127  A    between atoms: _287  and  _290
REMARK  128  A    between atoms: _290  and  _291
REMARK  129  A    between atoms: _296  and  _298
REMARK  130  A    between atoms: _298  and  _299
REMARK  131  A    between atoms: _298  and  _301
REMARK  132  A    between atoms: _301  and  _302
REMARK  133  A    between atoms: _302  and  _303
REMARK  134  A    between atoms: _303  and  _304
REMARK  135  A    between atoms: _313  and  _315
REMARK  136  A    between atoms: _315  and  _316
REMARK  137  A    between atoms: _315  and  _318
REMARK  138  A    between atoms: _318  and  _319
REMARK  139  A    between atoms: _324  and  _325
REMARK  140  A    between atoms: _327  and  _329
REMARK  141  A    between atoms: _329  and  _330
REMARK  142  A    between atoms: _329  and  _332
REMARK  143  A    between atoms: _332  and  _333
REMARK  144  A    between atoms: _338  and  _340
REMARK  145  A    between atoms: _340  and  _341
REMARK  146  A    between atoms: _340  and  _343
REMARK  147  A    between atoms: _343  and  _344
REMARK  148  A    between atoms: _348  and  _349
REMARK  149  A    between atoms: _354  and  _356
REMARK  150  A    between atoms: _356  and  _357
REMARK  151  A    between atoms: _356  and  _359
REMARK  152  A    between atoms: _359  and  _360
REMARK  153  A    between atoms: _362  and  _364
REMARK  154  A    between atoms: _364  and  _365
REMARK  155  A    between atoms: _364  and  _367
REMARK  156  A    between atoms: _370  and  _372
REMARK  157  A    between atoms: _372  and  _373
REMARK  158  A    between atoms: _372  and  _375
REMARK  159  A    between atoms: _375  and  _376
REMARK  160  A    between atoms: _379  and  _381
REMARK  161  A    between atoms: _381  and  _382
REMARK  162  A    between atoms: _381  and  _384
REMARK  163  A    between atoms: _384  and  _385
REMARK  164  A    between atoms: _390  and  _392
REMARK  165  A    between atoms: _392  and  _393
REMARK  166  A    between atoms: _392  and  _395
REMARK  167  A    between atoms: _395  and  _396
REMARK  168  A    between atoms: _399  and  _401
REMARK  169  A    between atoms: _401  and  _402
REMARK  170  A    between atoms: _401  and  _404
REMARK  171  A    between atoms: _404  and  _405
REMARK  172  A    between atoms: _405  and  _406
REMARK  173  A    between atoms: _409  and  _411
REMARK  174  A    between atoms: _411  and  _412
REMARK  175  A    between atoms: _411  and  _414
REMARK  176  A    between atoms: _414  and  _415
REMARK  177  A    between atoms: _415  and  _416
REMARK  178  A    between atoms: _421  and  _423
REMARK  179  A    between atoms: _423  and  _424
REMARK  180  A    between atoms: _423  and  _426
REMARK  181  A    between atoms: _426  and  _427
REMARK  182  A    between atoms: _430  and  _432
REMARK  183  A    between atoms: _432  and  _433
REMARK  184  A    between atoms: _432  and  _435
REMARK  185  A    between atoms: _435  and  _436
REMARK  186  A    between atoms: _441  and  _442
REMARK  187  A    between atoms: _444  and  _446
REMARK  188  A    between atoms: _446  and  _447
REMARK  189  A    between atoms: _446  and  _449
REMARK  190  A    between atoms: _449  and  _450
REMARK  191  A    between atoms: _453  and  _455
REMARK  192  A    between atoms: _455  and  _456
REMARK  193  A    between atoms: _455  and  _458
REMARK  194  A    between atoms: _461  and  _463
REMARK  195  A    between atoms: _463  and  _464
REMARK  196  A    between atoms: _463  and  _466
REMARK  197  A    between atoms: _466  and  _467
REMARK  198  A    between atoms: _471  and  _472
REMARK  199  A    between atoms: _477  and  _479
REMARK  200  A    between atoms: _479  and  _480
REMARK  201  A    between atoms: _479  and  _482
REMARK  202  A    between atoms: _485  and  _487
REMARK  203  A    between atoms: _487  and  _488
REMARK  204  A    between atoms: _487  and  _490
REMARK  205  A    between atoms: _490  and  _491
REMARK  206  A    between atoms: _494  and  _496
REMARK  207  A    between atoms: _496  and  _497
REMARK  208  A    between atoms: _496  and  _499
REMARK  209  A    between atoms: _499  and  _500
REMARK  210  A    between atoms: _503  and  _505
REMARK  211  A    between atoms: _505  and  _506
REMARK  212  A    between atoms: _505  and  _508
REMARK  213  A    between atoms: _508  and  _509
REMARK  214  A    between atoms: _512  and  _514
REMARK  215  A    between atoms: _514  and  _515
REMARK  216  A    between atoms: _514  and  _517
REMARK  217  A    between atoms: _517  and  _518
REMARK  218  A    between atoms: _523  and  _525
REMARK  219  A    between atoms: _525  and  _526
REMARK  220  A    between atoms: _525  and  _528
REMARK  221  A    between atoms: _530  and  _532
REMARK  222  A    between atoms: _532  and  _533
REMARK  223  A    between atoms: _532  and  _535
REMARK  224  A    between atoms: _535  and  _536
REMARK  225  A    between atoms: _542  and  _544
REMARK  226  A    between atoms: _544  and  _545
REMARK  227  A    between atoms: _544  and  _547
REMARK  228  A    between atoms: _550  and  _552
REMARK  229  A    between atoms: _552  and  _553
REMARK  230  A    between atoms: _552  and  _555
REMARK  231  A    between atoms: _555  and  _556
REMARK  232  A    between atoms: _559  and  _561
REMARK  233  A    between atoms: _561  and  _562
REMARK  234  A    between atoms: _561  and  _564
REMARK  235  A    between atoms: _567  and  _569
REMARK  236  A    between atoms: _569  and  _570
REMARK  237  A    between atoms: _569  and  _572
REMARK  238  A    between atoms: _572  and  _573
REMARK  239  A    between atoms: _578  and  _579
REMARK  240  A    between atoms: _581  and  _583
REMARK  241  A    between atoms: _583  and  _584
REMARK                            x       y       z     vdW  Elec       q    Type
REMARK                         _______ _______ _______ _____ _____    ______ ____
ROOT
ATOM      1  CA  SER A   1      20.305  24.974  20.543  0.00  0.00    +0.163 C 
ENDROOT
BRANCH   1   2
ATOM      2  N   SER A   1      20.683  24.343  19.287  0.00  0.00    -0.237 NA
ATOM      3  H   SER A   1      20.095  23.573  18.909  0.00  0.00    +0.142 HD
ENDBRANCH   1   2
BRANCH   1   4
ATOM      4  C   SER A   1      21.479  25.028  21.510  0.00  0.00    +0.227 C 
ATOM      5  O   SER A   1      21.481  25.821  22.446  0.00  0.00    -0.287 OA
ENDBRANCH   1   4
BRANCH   1   6
ATOM      6  CB  SER A   1      19.151  24.205  21.191  0.00  0.00    +0.162 C 
BRANCH   6   7
ATOM      7  OG  SER A   1      19.531  22.871  21.471  0.00  0.00    -0.380 OA
ATOM      8  H   SER A   1      18.771  22.393  21.889  0.00  0.00    +0.211 HD
ENDBRANCH   6   7
ENDBRANCH   1   6
TORSDOF 4
REMARK  Name = ../refined-set-2016/3e3c/3e3c_pocket.pdb
REMARK  241 active torsions:
REMARK  status: ('A' for Active; 'I' for Inactive)
REMARK    1  A    between atoms: _1  and  _3
REMARK    2  A    between atoms: _3  and  _4
REMARK    3  A    between atoms: _3  and  _6
REMARK    4  A    between atoms: _6  and  _7
REMARK    5  A    between atoms: _9  and  _11
REMARK    6  A    between atoms: _11  and  _12
REMARK    7  A    between atoms: _11  and  _14
REMARK    8  A    between atoms: _14  and  _15
REMARK    9  A    between atoms: _15  and  _16
REMARK   10  A    between atoms: _18  and  _20
REMARK   11  A    between atoms: _20  and  _21
REMARK   12  A    between atoms: _20  and  _23
REMARK   13  A    between atoms: _23  and  _24
REMARK   14  A    between atoms: _27  and  _29
REMARK   15  A    between atoms: _29  and  _30
REMARK   16  A    between atoms: _29  and  _32
REMARK   17  A    between atoms: _32  and  _33
REMARK   18  A    between atoms: _36  and  _38
REMARK   19  A    between atoms: _38  and  _39
REMARK   20  A    between atoms: _38  and  _41
REMARK   21  A    between atoms: _41  and  _42
REMARK   22  A    between atoms: _48  and  _50
REMARK   23  A    between atoms: _50  and  _51
REMARK   24  A    between atoms: _50  and  _53
REMARK   25  A    between atoms: _53  and  _54
REMARK   26  A    between atoms: _57  and  _59
REMARK   27  A    between atoms: _59  and  _60
REMARK   28  A    between atoms: _59  and  _62
REMARK   29  A    between atoms: _62  and  _63
REMARK   30  A    between atoms: _65  and  _67
REMARK   31  A    between atoms: _67  and  _68
REMARK   32  A    between atoms: _67  and  _70
REMARK   33  A    between atoms: _70  and  _71
REMARK   34  A    between atoms: _73  and  _75
REMARK   35  A    between atoms: _75  and  _76
REMARK   36  A    between atoms: _75  and  _78
REMARK   37  A    between atoms: _80  and  _82
REMARK   38  A    between atoms: _82  and  _83
REMARK   39  A    between atoms: _85  and  _87
REMARK   40  A    between atoms: _87  and  _88
REMARK   41  A    between atoms: _87  and  _90
REMARK   42  A    between atoms: _90  and  _91
REMARK   43  A    between atoms: _91  and  _92
REMARK   44  A    between atoms: _95  and  _97
REMARK   45  A    between atoms: _97  and  _98
REMARK   46  A    between atoms: _100  and  _102
REMARK   47  A    between atoms: _102  and  _103
REMARK   48  A    between atoms: _102  and  _105
REMARK   49  A    between atoms: _105  and  _106
REMARK   50  A    between atoms: _109  and  _111
REMARK   51  A    between atoms: _111  and  _112
REMARK   52  A    between atoms: _111  and  _114
REMARK   53  A    between atoms: _114  and  _115
REMARK   54  A    between atoms: _118  and  _120
REMARK   55  A    between atoms: _120  and  _121
REMARK   56  A    between atoms: _120  and  _123
REMARK   57  A    between atoms: _123  and  _124
REMARK   58  A    between atoms: _127  and  _129
REMARK   59  A    between atoms: _129  and  _130
REMARK   60  A    between atoms: _129  and  _132
REMARK   61  A    between atoms: _132  and  _133
REMARK   62  A    between atoms: _133  and  _134
REMARK   63  A    between atoms: _134  and  _135
REMARK   64  A    between atoms: _135  and  _136
REMARK   65  A    between atoms: _140  and  _142
REMARK   66  A    between atoms: _142  and  _143
REMARK   67  A    between atoms: _142  and  _145
REMARK   68  A    between atoms: _145  and  _146
REMARK   69  A    between atoms: _149  and  _151
REMARK   70  A    between atoms: _151  and  _152
REMARK   71  A    between atoms: _151  and  _154
REMARK   72  A    between atoms: _154  and  _155
REMARK   73  A    between atoms: _158  and  _160
REMARK   74  A    between atoms: _160  and  _161
REMARK   75  A    between atoms: _163  and  _165
REMARK   76  A    between atoms: _165  and  _166
REMARK   77  A    between atoms: _168  and  _170
REMARK   78  A    between atoms: _170  and  _171
REMARK   79  A    between atoms: _170  and  _173
REMARK   80  A    between atoms: _173  and  _174
REMARK   81  A    between atoms: _177  and  _179
REMARK   82  A    between atoms: _179  and  _180
REMARK   83  A    between atoms: _179  and  _182
REMARK   84  A    between atoms: _182  and  _183
REMARK   85  A    between atoms: _186  and  _188
REMARK   86  A    between atoms: _188  and  _189
REMARK   87  A    between atoms: _192  and  _194
REMARK   88  A    between atoms: _194  and  _195
REMARK   89  A    between atoms: _194  and  _197
REMARK   90  A    between atoms: _197  and  _198
REMARK   91  A    between atoms: _200  and  _202
REMARK   92  A    between atoms: _202  and  _203
REMARK   93  A    between atoms: _202  and  _205
REMARK   94  A    between atoms: _208  and  _210
REMARK   95  A    between atoms: _210  and  _211
REMARK   96  A    between atoms: _210  and  _213
REMARK   97  A    between atoms: _213  and  _214
REMARK   98  A    between atoms: _219  and  _220
REMARK   99  A    between atoms: _222  and  _224
REMARK  100  A    between atoms: _224  and  _225
REMARK  101  A    between atoms: _224  and  _227
REMARK  102  A    between atoms: _227  and  _228
REMARK  103  A    between atoms: _228  and  _229
REMARK  104  A    between atoms: _234  and  _236
REMARK  105  A    between atoms: _236  and  _237
REMARK  106  A    between atoms: _239  and  _241
REMARK  107  A    between atoms: _241  and  _242
REMARK  108  A    between atoms: _241  and  _244
REMARK  109  A    between atoms: _244  and  _245
REMARK  110  A    between atoms: _248  and  _250
REMARK  111  A    between atoms: _250  and  _251
REMARK  112  A    between atoms: _250  and  _253
REMARK  113  A    between atoms: _253  and  _254
REMARK  114  A    between atoms: _257  and  _259
REMARK  115  A    between atoms: _259  and  _260
REMARK  116  A    between atoms: _259  and  _262
REMARK  117  A    between atoms: _262  and  _263
REMARK  118  A    between atoms: _266  and  _268
REMARK  119  A    between atoms: _268  and  _269
REMARK  120  A    between atoms: _268  and  _271
REMARK  121  A    between atoms: _271  and  _272
REMARK  122  A    between atoms: _277  and  _279
REMARK  123  A    between atoms: _279  and  _280
REMARK  124  A    between atoms: _279  and  _282
REMARK  125  A    between atoms: _285  and  _287
REMARK  126  A    between atoms: _287  and  _288
REMARK  127  A    between atoms: _287  and  _290
REMARK  128  A    between atoms: _290  and  _291
REMARK  129  A    between atoms: _296  and  _298
REMARK  130  A    between atoms: _298  and  _299
REMARK  131  A    between atoms: _298  and  _301
REMARK  132  A    between atoms: _301  and  _302
REMARK  133  A    between atoms: _302  and  _303
REMARK  134  A    between atoms: _303  and  _304
REMARK  135  A    between atoms: _313  and  _315
REMARK  136  A    between atoms: _315  and  _316
REMARK  137  A    between atoms: _315  and  _318
REMARK  138  A    between atoms: _318  and  _319
REMARK  139  A    between atoms: _324  and  _325
REMARK  140  A    between atoms: _327  and  _329
REMARK  141  A    between atoms: _329  and  _330
REMARK  142  A    between atoms: _329  and  _332
REMARK  143  A    between atoms: _332  and  _333
REMARK  144  A    between atoms: _338  and  _340
REMARK  145  A    between atoms: _340  and  _341
REMARK  146  A    between atoms: _340  and  _343
REMARK  147  A    between atoms: _343  and  _344
REMARK  148  A    between atoms: _348  and  _349
REMARK  149  A    between atoms: _354  and  _356
REMARK  150  A    between atoms: _356  and  _357
REMARK  151  A    between atoms: _356  and  _359
REMARK  152  A    between atoms: _359  and  _360
REMARK  153  A    between atoms: _362  and  _364
REMARK  154  A    between atoms: _364  and  _365
REMARK  155  A    between atoms: _364  and  _367
REMARK  156  A    between atoms: _370  and  _372
REMARK  157  A    between atoms: _372  and  _373
REMARK  158  A    between atoms: _372  and  _375
REMARK  159  A    between atoms: _375  and  _376
REMARK  160  A    between atoms: _379  and  _381
REMARK  161  A    between atoms: _381  and  _382
REMARK  162  A    between atoms: _381  and  _384
REMARK  163  A    between atoms: _384  and  _385
REMARK  164  A    between atoms: _390  and  _392
REMARK  165  A    between atoms: _392  and  _393
REMARK  166  A    between atoms: _392  and  _395
REMARK  167  A    between atoms: _395  and  _396
REMARK  168  A    between atoms: _399  and  _401
REMARK  169  A    between atoms: _401  and  _402
REMARK  170  A    between atoms: _401  and  _404
REMARK  171  A    between atoms: _404  and  _405
REMARK  172  A    between atoms: _405  and  _406
REMARK  173  A    between atoms: _409  and  _411
REMARK  174  A    between atoms: _411  and  _412
REMARK  175  A    between atoms: _411  and  _414
REMARK  176  A    between atoms: _414  and  _415
REMARK  177  A    between atoms: _415  and  _416
REMARK  178  A    between atoms: _421  and  _423
REMARK  179  A    between atoms: _423  and  _424
REMARK  180  A    between atoms: _423  and  _426
REMARK  181  A    between atoms: _426  and  _427
REMARK  182  A    between atoms: _430  and  _432
REMARK  183  A    between atoms: _432  and  _433
REMARK  184  A    between atoms: _432  and  _435
REMARK  185  A    between atoms: _435  and  _436
REMARK  186  A    between atoms: _441  and  _442
REMARK  187  A    between atoms: _444  and  _446
REMARK  188  A    between atoms: _446  and  _447
REMARK  189  A    between atoms: _446  and  _449
REMARK  190  A    between atoms: _449  and  _450
REMARK  191  A    between atoms: _453  and  _455
REMARK  192  A    between atoms: _455  and  _456
REMARK  193  A    between atoms: _455  and  _458
REMARK  194  A    between atoms: _461  and  _463
REMARK  195  A    between atoms: _463  and  _464
REMARK  196  A    between atoms: _463  and  _466
REMARK  197  A    between atoms: _466  and  _467
REMARK  198  A    between atoms: _471  and  _472
REMARK  199  A    between atoms: _477  and  _479
REMARK  200  A    between atoms: _479  and  _480
REMARK  201  A    between atoms: _479  and  _482
REMARK  202  A    between atoms: _485  and  _487
REMARK  203  A    between atoms: _487  and  _488
REMARK  204  A    between atoms: _487  and  _490
REMARK  205  A    between atoms: _490  and  _491
REMARK  206  A    between atoms: _494  and  _496
REMARK  207  A    between atoms: _496  and  _497
REMARK  208  A    between atoms: _496  and  _499
REMARK  209  A    between atoms: _499  and  _500
REMARK  210  A    between atoms: _503  and  _505
REMARK  211  A    between atoms: _505  and  _506
REMARK  212  A    between atoms: _505  and  _508
REMARK  213  A    between atoms: _508  and  _509
REMARK  214  A    between atoms: _512  and  _514
REMARK  215  A    between atoms: _514  and  _515
REMARK  216  A    between atoms: _514  and  _517
REMARK  217  A    between atoms: _517  and  _518
REMARK  218  A    between atoms: _523  and  _525
REMARK  219  A    between atoms: _525  and  _526
REMARK  220  A    between atoms: _525  and  _528
REMARK  221  A    between atoms: _530  and  _532
REMARK  222  A    between atoms: _532  and  _533
REMARK  223  A    between atoms: _532  and  _535
REMARK  224  A    between atoms: _535  and  _536
REMARK  225  A    between atoms: _542  and  _544
REMARK  226  A    between atoms: _544  and  _545
REMARK  227  A    between atoms: _544  and  _547
REMARK  228  A    between atoms: _550  and  _552
REMARK  229  A    between atoms: _552  and  _553
REMARK  230  A    between atoms: _552  and  _555
REMARK  231  A    between atoms: _555  and  _556
REMARK  232  A    between atoms: _559  and  _561
REMARK  233  A    between atoms: _561  and  _562
REMARK  234  A    between atoms: _561  and  _564
REMARK  235  A    between atoms: _567  and  _569
REMARK  236  A    between atoms: _569  and  _570
REMARK  237  A    between atoms: _569  and  _572
REMARK  238  A    between atoms: _572  and  _573
REMARK  239  A    between atoms: _578  and  _579
REMARK  240  A    between atoms: _581  and  _583
REMARK  241  A    between atoms: _583  and  _584
REMARK                            x       y       z     vdW  Elec       q    Type
REMARK                         _______ _______ _______ _____ _____    ______ ____
ROOT
ATOM      1  CA  MET A   1      23.180  29.434  22.983  0.00  0.00    +0.134 C 
ENDROOT
BRANCH   1   2
ATOM      2  N   MET A   1      23.652  28.368  22.100  0.00  0.00    -0.239 NA
ATOM      3  H   MET A   1      23.069  27.513  21.995  0.00  0.00    +0.142 HD
ENDBRANCH   1   2
BRANCH   1   4
ATOM      4  C   MET A   1      24.295  29.952  23.888  0.00  0.00    +0.224 C 
ATOM      5  O   MET A   1      25.043  29.168  24.474  0.00  0.00    -0.287 OA
ENDBRANCH   1   4
BRANCH   1   6
ATOM      6  CB  MET A   1      22.048  28.927  23.887  0.00  0.00    +0.037 C 
BRANCH   6   7
ATOM      7  CG  MET A   1      20.722  28.604  23.214  0.00  0.00    +0.059 C 
BRANCH   7   8
ATOM      8  SD  MET A   1      19.462  27.822  24.499  0.00  0.00    -0.139 S 
ATOM      9  CE  MET A   1      18.977  29.418  25.484  0.00  0.00    +0.069 C 
ENDBRANCH   7   8
ENDBRANCH   6   7
ENDBRANCH   1   6
TORSDOF 5
REMARK  Name = ../refined-set-2016/3e3c/3e3c_pocket.pdb
REMARK  241 active torsions:
REMARK  status: ('A' for Active; 'I' for Inactive)
REMARK    1  A    between atoms: _1  and  _3
REMARK    2  A    between atoms: _3  and  _4
REMARK    3  A    between atoms: _3  and  _6
REMARK    4  A    between atoms: _6  and  _7
REMARK    5  A    between atoms: _9  and  _11
REMARK    6  A    between atoms: _11  and  _12
REMARK    7  A    between atoms: _11  and  _14
REMARK    8  A    between atoms: _14  and  _15
REMARK    9  A    between atoms: _15  and  _16
REMARK   10  A    between atoms: _18  and  _20
REMARK   11  A    between atoms: _20  and  _21
REMARK   12  A    between atoms: _20  and  _23
REMARK   13  A    between atoms: _23  and  _24
REMARK   14  A    between atoms: _27  and  _29
REMARK   15  A    between atoms: _29  and  _30
REMARK   16  A    between atoms: _29  and  _32
REMARK   17  A    between atoms: _32  and  _33
REMARK   18  A    between atoms: _36  and  _38
REMARK   19  A    between atoms: _38  and  _39
REMARK   20  A    between atoms: _38  and  _41
REMARK   21  A    between atoms: _41  and  _42
REMARK   22  A    between atoms: _48  and  _50
REMARK   23  A    between atoms: _50  and  _51
REMARK   24  A    between atoms: _50  and  _53
REMARK   25  A    between atoms: _53  and  _54
REMARK   26  A    between atoms: _57  and  _59
REMARK   27  A    between atoms: _59  and  _60
REMARK   28  A    between atoms: _59  and  _62
REMARK   29  A    between atoms: _62  and  _63
REMARK   30  A    between atoms: _65  and  _67
REMARK   31  A    between atoms: _67  and  _68
REMARK   32  A    between atoms: _67  and  _70
REMARK   33  A    between atoms: _70  and  _71
REMARK   34  A    between atoms: _73  and  _75
REMARK   35  A    between atoms: _75  and  _76
REMARK   36  A    between atoms: _75  and  _78
REMARK   37  A    between atoms: _80  and  _82
REMARK   38  A    between atoms: _82  and  _83
REMARK   39  A    between atoms: _85  and  _87
REMARK   40  A    between atoms: _87  and  _88
REMARK   41  A    between atoms: _87  and  _90
REMARK   42  A    between atoms: _90  and  _91
REMARK   43  A    between atoms: _91  and  _92
REMARK   44  A    between atoms: _95  and  _97
REMARK   45  A    between atoms: _97  and  _98
REMARK   46  A    between atoms: _100  and  _102
REMARK   47  A    between atoms: _102  and  _103
REMARK   48  A    between atoms: _102  and  _105
REMARK   49  A    between atoms: _105  and  _106
REMARK   50  A    between atoms: _109  and  _111
REMARK   51  A    between atoms: _111  and  _112
REMARK   52  A    between atoms: _111  and  _114
REMARK   53  A    between atoms: _114  and  _115
REMARK   54  A    between atoms: _118  and  _120
REMARK   55  A    between atoms: _120  and  _121
REMARK   56  A    between atoms: _120  and  _123
REMARK   57  A    between atoms: _123  and  _124
REMARK   58  A    between atoms: _127  and  _129
REMARK   59  A    between atoms: _129  and  _130
REMARK   60  A    between atoms: _129  and  _132
REMARK   61  A    between atoms: _132  and  _133
REMARK   62  A    between atoms: _133  and  _134
REMARK   63  A    between atoms: _134  and  _135
REMARK   64  A    between atoms: _135  and  _136
REMARK   65  A    between atoms: _140  and  _142
REMARK   66  A    between atoms: _142  and  _143
REMARK   67  A    between atoms: _142  and  _145
REMARK   68  A    between atoms: _145  and  _146
REMARK   69  A    between atoms: _149  and  _151
REMARK   70  A    between atoms: _151  and  _152
REMARK   71  A    between atoms: _151  and  _154
REMARK   72  A    between atoms: _154  and  _155
REMARK   73  A    between atoms: _158  and  _160
REMARK   74  A    between atoms: _160  and  _161
REMARK   75  A    between atoms: _163  and  _165
REMARK   76  A    between atoms: _165  and  _166
REMARK   77  A    between atoms: _168  and  _170
REMARK   78  A    between atoms: _170  and  _171
REMARK   79  A    between atoms: _170  and  _173
REMARK   80  A    between atoms: _173  and  _174
REMARK   81  A    between atoms: _177  and  _179
REMARK   82  A    between atoms: _179  and  _180
REMARK   83  A    between atoms: _179  and  _182
REMARK   84  A    between atoms: _182  and  _183
REMARK   85  A    between atoms: _186  and  _188
REMARK   86  A    between atoms: _188  and  _189
REMARK   87  A    between atoms: _192  and  _194
REMARK   88  A    between atoms: _194  and  _195
REMARK   89  A    between atoms: _194  and  _197
REMARK   90  A    between atoms: _197  and  _198
REMARK   91  A    between atoms: _200  and  _202
REMARK   92  A    between atoms: _202  and  _203
REMARK   93  A    between atoms: _202  and  _205
REMARK   94  A    between atoms: _208  and  _210
REMARK   95  A    between atoms: _210  and  _211
REMARK   96  A    between atoms: _210  and  _213
REMARK   97  A    between atoms: _213  and  _214
REMARK   98  A    between atoms: _219  and  _220
REMARK   99  A    between atoms: _222  and  _224
REMARK  100  A    between atoms: _224  and  _225
REMARK  101  A    between atoms: _224  and  _227
REMARK  102  A    between atoms: _227  and  _228
REMARK  103  A    between atoms: _228  and  _229
REMARK  104  A    between atoms: _234  and  _236
REMARK  105  A    between atoms: _236  and  _237
REMARK  106  A    between atoms: _239  and  _241
REMARK  107  A    between atoms: _241  and  _242
REMARK  108  A    between atoms: _241  and  _244
REMARK  109  A    between atoms: _244  and  _245
REMARK  110  A    between atoms: _248  and  _250
REMARK  111  A    between atoms: _250  and  _251
REMARK  112  A    between atoms: _250  and  _253
REMARK  113  A    between atoms: _253  and  _254
REMARK  114  A    between atoms: _257  and  _259
REMARK  115  A    between atoms: _259  and  _260
REMARK  116  A    between atoms: _259  and  _262
REMARK  117  A    between atoms: _262  and  _263
REMARK  118  A    between atoms: _266  and  _268
REMARK  119  A    between atoms: _268  and  _269
REMARK  120  A    between atoms: _268  and  _271
REMARK  121  A    between atoms: _271  and  _272
REMARK  122  A    between atoms: _277  and  _279
REMARK  123  A    between atoms: _279  and  _280
REMARK  124  A    between atoms: _279  and  _282
REMARK  125  A    between atoms: _285  and  _287
REMARK  126  A    between atoms: _287  and  _288
REMARK  127  A    between atoms: _287  and  _290
REMARK  128  A    between atoms: _290  and  _291
REMARK  129  A    between atoms: _296  and  _298
REMARK  130  A    between atoms: _298  and  _299
REMARK  131  A    between atoms: _298  and  _301
REMARK  132  A    between atoms: _301  and  _302
REMARK  133  A    between atoms: _302  and  _303
REMARK  134  A    between atoms: _303  and  _304
REMARK  135  A    between atoms: _313  and  _315
REMARK  136  A    between atoms: _315  and  _316
REMARK  137  A    between atoms: _315  and  _318
REMARK  138  A    between atoms: _318  and  _319
REMARK  139  A    between atoms: _324  and  _325
REMARK  140  A    between atoms: _327  and  _329
REMARK  141  A    between atoms: _329  and  _330
REMARK  142  A    between atoms: _329  and  _332
REMARK  143  A    between atoms: _332  and  _333
REMARK  144  A    between atoms: _338  and  _340
REMARK  145  A    between atoms: _340  and  _341
REMARK  146  A    between atoms: _340  and  _343
REMARK  147  A    between atoms: _343  and  _344
REMARK  148  A    between atoms: _348  and  _349
REMARK  149  A    between atoms: _354  and  _356
REMARK  150  A    between atoms: _356  and  _357
REMARK  151  A    between atoms: _356  and  _359
REMARK  152  A    between atoms: _359  and  _360
REMARK  153  A    between atoms: _362  and  _364
REMARK  154  A    between atoms: _364  and  _365
REMARK  155  A    between atoms: _364  and  _367
REMARK  156  A    between atoms: _370  and  _372
REMARK  157  A    between atoms: _372  and  _373
REMARK  158  A    between atoms: _372  and  _375
REMARK  159  A    between atoms: _375  and  _376
REMARK  160  A    between atoms: _379  and  _381
REMARK  161  A    between atoms: _381  and  _382
REMARK  162  A    between atoms: _381  and  _384
REMARK  163  A    between atoms: _384  and  _385
REMARK  164  A    between atoms: _390  and  _392
REMARK  165  A    between atoms: _392  and  _393
REMARK  166  A    between atoms: _392  and  _395
REMARK  167  A    between atoms: _395  and  _396
REMARK  168  A    between atoms: _399  and  _401
REMARK  169  A    between atoms: _401  and  _402
REMARK  170  A    between atoms: _401  and  _404
REMARK  171  A    between atoms: _404  and  _405
REMARK  172  A    between atoms: _405  and  _406
REMARK  173  A    between atoms: _409  and  _411
REMARK  174  A    between atoms: _411  and  _412
REMARK  175  A    between atoms: _411  and  _414
REMARK  176  A    between atoms: _414  and  _415
REMARK  177  A    between atoms: _415  and  _416
REMARK  178  A    between atoms: _421  and  _423
REMARK  179  A    between atoms: _423  and  _424
REMARK  180  A    between atoms: _423  and  _426
REMARK  181  A    between atoms: _426  and  _427
REMARK  182  A    between atoms: _430  and  _432
REMARK  183  A    between atoms: _432  and  _433
REMARK  184  A    between atoms: _432  and  _435
REMARK  185  A    between atoms: _435  and  _436
REMARK  186  A    between atoms: _441  and  _442
REMARK  187  A    between atoms: _444  and  _446
REMARK  188  A    between atoms: _446  and  _447
REMARK  189  A    between atoms: _446  and  _449
REMARK  190  A    between atoms: _449  and  _450
REMARK  191  A    between atoms: _453  and  _455
REMARK  192  A    between atoms: _455  and  _456
REMARK  193  A    between atoms: _455  and  _458
REMARK  194  A    between atoms: _461  and  _463
REMARK  195  A    between atoms: _463  and  _464
REMARK  196  A    between atoms: _463  and  _466
REMARK  197  A    between atoms: _466  and  _467
REMARK  198  A    between atoms: _471  and  _472
REMARK  199  A    between atoms: _477  and  _479
REMARK  200  A    between atoms: _479  and  _480
REMARK  201  A    between atoms: _479  and  _482
REMARK  202  A    between atoms: _485  and  _487
REMARK  203  A    between atoms: _487  and  _488
REMARK  204  A    between atoms: _487  and  _490
REMARK  205  A    between atoms: _490  and  _491
REMARK  206  A    between atoms: _494  and  _496
REMARK  207  A    between atoms: _496  and  _497
REMARK  208  A    between atoms: _496  and  _499
REMARK  209  A    between atoms: _499  and  _500
REMARK  210  A    between atoms: _503  and  _505
REMARK  211  A    between atoms: _505  and  _506
REMARK  212  A    between atoms: _505  and  _508
REMARK  213  A    between atoms: _508  and  _509
REMARK  214  A    between atoms: _512  and  _514
REMARK  215  A    between atoms: _514  and  _515
REMARK  216  A    between atoms: _514  and  _517
REMARK  217  A    between atoms: _517  and  _518
REMARK  218  A    between atoms: _523  and  _525
REMARK  219  A    between atoms: _525  and  _526
REMARK  220  A    between atoms: _525  and  _528
REMARK  221  A    between atoms: _530  and  _532
REMARK  222  A    between atoms: _532  and  _533
REMARK  223  A    between atoms: _532  and  _535
REMARK  224  A    between atoms: _535  and  _536
REMARK  225  A    between atoms: _542  and  _544
REMARK  226  A    between atoms: _544  and  _545
REMARK  227  A    between atoms: _544  and  _547
REMARK  228  A    between atoms: _550  and  _552
REMARK  229  A    between atoms: _552  and  _553
REMARK  230  A    between atoms: _552  and  _555
REMARK  231  A    between atoms: _555  and  _556
REMARK  232  A    between atoms: _559  and  _561
REMARK  233  A    between atoms: _561  and  _562
REMARK  234  A    between atoms: _561  and  _564
REMARK  235  A    between atoms: _567  and  _569
REMARK  236  A    between atoms: _569  and  _570
REMARK  237  A    between atoms: _569  and  _572
REMARK  238  A    between atoms: _572  and  _573
REMARK  239  A    between atoms: _578  and  _579
REMARK  240  A    between atoms: _581  and  _583
REMARK  241  A    between atoms: _583  and  _584
REMARK                            x       y       z     vdW  Elec       q    Type
REMARK                         _______ _______ _______ _____ _____    ______ ____
ROOT
ATOM      1  CA  PHE A   3       5.395  30.611  25.676  0.00  0.00    +0.153 C 
ENDROOT
BRANCH   1   3
ATOM      2  C   ILE A   2       6.972  32.397  26.013  0.00  0.00    +0.241 C 
ATOM      3  N   PHE A   3       5.865  31.779  26.400  0.00  0.00    -0.297 N 
ATOM      4  H   PHE A   3       5.333  32.130  27.222  0.00  0.00    +0.150 HD
ATOM      5  O   ILE A   2       7.624  32.026  25.036  0.00  0.00    -0.273 OA
BRANCH   2   6
ATOM      6  CA  ILE A   2       7.415  33.603  26.842  0.00  0.00    +0.148 C 
BRANCH   6   9
ATOM      7  C   ILE A   1       9.455  33.644  28.204  0.00  0.00    +0.238 C 
ATOM      8  O   ILE A   1       8.852  33.902  29.241  0.00  0.00    -0.274 OA
ATOM      9  N   ILE A   2       8.858  33.506  27.026  0.00  0.00    -0.297 N 
ATOM     10  H   ILE A   2       9.450  33.319  26.192  0.00  0.00    +0.150 HD
BRANCH   7  11
ATOM     11  CA  ILE A   1      10.970  33.483  28.193  0.00  0.00    +0.145 C 
BRANCH  11  12
ATOM     12  CB  ILE A   1      11.385  32.032  28.570  0.00  0.00    +0.025 C 
ATOM     13  CG2 ILE A   1      10.172  31.168  28.887  0.00  0.00    +0.002 C 
BRANCH  12  14
ATOM     14  CG1 ILE A   1      12.246  31.452  27.450  0.00  0.00    +0.002 C 
ATOM     15  CD1 ILE A   1      12.793  30.083  27.753  0.00  0.00    +0.000 C 
ENDBRANCH  12  14
ENDBRANCH  11  12
BRANCH  11  16
ATOM     16  N   ILE A   1      11.697  34.415  29.035  0.00  0.00    -0.238 NA
ATOM     17  H   ILE A   1      11.340  34.664  29.980  0.00  0.00    +0.142 HD
ENDBRANCH  11  16
ENDBRANCH   7  11
ENDBRANCH   6   9
BRANCH   6  18
ATOM     18  CB  ILE A   2       7.028  34.896  26.109  0.00  0.00    +0.027 C 
ATOM     19  CG2 ILE A   2       5.514  34.993  25.996  0.00  0.00    +0.002 C 
BRANCH  18  20
ATOM     20  CG1 ILE A   2       7.572  36.100  26.879  0.00  0.00    +0.002 C 
ATOM     21  CD1 ILE A   2       7.326  37.441  26.205  0.00  0.00    +0.000 C 
ENDBRANCH  18  20
ENDBRANCH   6  18
ENDBRANCH   2   6
ENDBRANCH   1   3
BRANCH   1  22
ATOM     22  C   PHE A   3       3.877  30.476  25.632  0.00  0.00    +0.241 C 
ATOM     23  O   PHE A   3       3.152  31.055  26.446  0.00  0.00    -0.273 OA
ATOM     24  N   ILE A   4       3.410  29.706  24.659  0.00  0.00    -0.297 N 
ATOM     25  H   ILE A   4       4.083  29.253  24.008  0.00  0.00    +0.150 HD
BRANCH  24  26
ATOM     26  CA  ILE A   4       1.988  29.474  24.472  0.00  0.00    +0.149 C 
BRANCH  26  27
ATOM     27  C   ILE A   4       1.815  28.003  24.121  0.00  0.00    +0.241 C 
ATOM     28  N   SER A   5       0.849  27.357  24.762  0.00  0.00    -0.296 N 
ATOM     29  H   SER A   5       0.255  27.875  25.440  0.00  0.00    +0.150 HD
ATOM     30  O   ILE A   4       2.551  27.461  23.297  0.00  0.00    -0.273 OA
BRANCH  28  31
ATOM     31  CA  SER A   5       0.601  25.938  24.538  0.00  0.00    +0.166 C 
BRANCH  31  32
ATOM     32  C   SER A   5      -0.442  25.701  23.458  0.00  0.00    +0.229 C 
ATOM     33  O   SER A   5      -0.987  26.643  22.887  0.00  0.00    -0.286 OA
ENDBRANCH  31  32
BRANCH  31  34
ATOM     34  CB  SER A   5       0.125  25.291  25.833  0.00  0.00    +0.165 C 
BRANCH  34  35
ATOM     35  OG  SER A   5      -1.138  25.815  26.204  0.00  0.00    -0.380 OA
ATOM     36  H   SER A   5      -1.437  25.388  27.046  0.00  0.00    +0.211 HD
ENDBRANCH  34  35
ENDBRANCH  31  34
ENDBRANCH  28  31
ENDBRANCH  26  27
BRANCH  26  37
ATOM     37  CB  ILE A   4       1.433  30.366  23.339  0.00  0.00    +0.027 C 
ATOM     38  CG2 ILE A   4       2.140  30.049  22.028  0.00  0.00    +0.002 C 
BRANCH  37  39
ATOM     39  CG1 ILE A   4      -0.079  30.172  23.207  0.00  0.00    +0.002 C 
ATOM     40  CD1 ILE A   4      -0.732  31.117  22.208  0.00  0.00    +0.000 C 
ENDBRANCH  37  39
ENDBRANCH  26  37
ENDBRANCH  24  26
ENDBRANCH   1  22
BRANCH   1  41
ATOM     41  CB  PHE A   3       6.018  29.356  26.286  0.00  0.00    +0.055 C 
BRANCH  41  42
ATOM     42  CG  PHE A   3       5.898  29.290  27.777  0.00  0.00    -0.020 A 
ATOM     43  CD2 PHE A   3       6.986  29.599  28.583  0.00  0.00    -0.004 A 
ATOM     44  CE2 PHE A   3       6.868  29.607  29.969  0.00  0.00    -0.000 A 
ATOM     45  CZ  PHE A   3       5.649  29.304  30.558  0.00  0.00    -0.000 A 
ATOM     46  CE1 PHE A   3       4.557  28.989  29.757  0.00  0.00    -0.000 A 
ATOM     47  CD1 PHE A   3       4.687  28.984  28.377  0.00  0.00    -0.004 A 
ENDBRANCH  41  42
ENDBRANCH   1  41
TORSDOF 20
REMARK  Name = ../refined-set-2016/3e3c/3e3c_pocket.pdb
REMARK  241 active torsions:
REMARK  status: ('A' for Active; 'I' for Inactive)
REMARK    1  A    between atoms: _1  and  _3
REMARK    2  A    between atoms: _3  and  _4
REMARK    3  A    between atoms: _3  and  _6
REMARK    4  A    between atoms: _6  and  _7
REMARK    5  A    between atoms: _9  and  _11
REMARK    6  A    between atoms: _11  and  _12
REMARK    7  A    between atoms: _11  and  _14
REMARK    8  A    between atoms: _14  and  _15
REMARK    9  A    between atoms: _15  and  _16
REMARK   10  A    between atoms: _18  and  _20
REMARK   11  A    between atoms: _20  and  _21
REMARK   12  A    between atoms: _20  and  _23
REMARK   13  A    between atoms: _23  and  _24
REMARK   14  A    between atoms: _27  and  _29
REMARK   15  A    between atoms: _29  and  _30
REMARK   16  A    between atoms: _29  and  _32
REMARK   17  A    between atoms: _32  and  _33
REMARK   18  A    between atoms: _36  and  _38
REMARK   19  A    between atoms: _38  and  _39
REMARK   20  A    between atoms: _38  and  _41
REMARK   21  A    between atoms: _41  and  _42
REMARK   22  A    between atoms: _48  and  _50
REMARK   23  A    between atoms: _50  and  _51
REMARK   24  A    between atoms: _50  and  _53
REMARK   25  A    between atoms: _53  and  _54
REMARK   26  A    between atoms: _57  and  _59
REMARK   27  A    between atoms: _59  and  _60
REMARK   28  A    between atoms: _59  and  _62
REMARK   29  A    between atoms: _62  and  _63
REMARK   30  A    between atoms: _65  and  _67
REMARK   31  A    between atoms: _67  and  _68
REMARK   32  A    between atoms: _67  and  _70
REMARK   33  A    between atoms: _70  and  _71
REMARK   34  A    between atoms: _73  and  _75
REMARK   35  A    between atoms: _75  and  _76
REMARK   36  A    between atoms: _75  and  _78
REMARK   37  A    between atoms: _80  and  _82
REMARK   38  A    between atoms: _82  and  _83
REMARK   39  A    between atoms: _85  and  _87
REMARK   40  A    between atoms: _87  and  _88
REMARK   41  A    between atoms: _87  and  _90
REMARK   42  A    between atoms: _90  and  _91
REMARK   43  A    between atoms: _91  and  _92
REMARK   44  A    between atoms: _95  and  _97
REMARK   45  A    between atoms: _97  and  _98
REMARK   46  A    between atoms: _100  and  _102
REMARK   47  A    between atoms: _102  and  _103
REMARK   48  A    between atoms: _102  and  _105
REMARK   49  A    between atoms: _105  and  _106
REMARK   50  A    between atoms: _109  and  _111
REMARK   51  A    between atoms: _111  and  _112
REMARK   52  A    between atoms: _111  and  _114
REMARK   53  A    between atoms: _114  and  _115
REMARK   54  A    between atoms: _118  and  _120
REMARK   55  A    between atoms: _120  and  _121
REMARK   56  A    between atoms: _120  and  _123
REMARK   57  A    between atoms: _123  and  _124
REMARK   58  A    between atoms: _127  and  _129
REMARK   59  A    between atoms: _129  and  _130
REMARK   60  A    between atoms: _129  and  _132
REMARK   61  A    between atoms: _132  and  _133
REMARK   62  A    between atoms: _133  and  _134
REMARK   63  A    between atoms: _134  and  _135
REMARK   64  A    between atoms: _135  and  _136
REMARK   65  A    between atoms: _140  and  _142
REMARK   66  A    between atoms: _142  and  _143
REMARK   67  A    between atoms: _142  and  _145
REMARK   68  A    between atoms: _145  and  _146
REMARK   69  A    between atoms: _149  and  _151
REMARK   70  A    between atoms: _151  and  _152
REMARK   71  A    between atoms: _151  and  _154
REMARK   72  A    between atoms: _154  and  _155
REMARK   73  A    between atoms: _158  and  _160
REMARK   74  A    between atoms: _160  and  _161
REMARK   75  A    between atoms: _163  and  _165
REMARK   76  A    between atoms: _165  and  _166
REMARK   77  A    between atoms: _168  and  _170
REMARK   78  A    between atoms: _170  and  _171
REMARK   79  A    between atoms: _170  and  _173
REMARK   80  A    between atoms: _173  and  _174
REMARK   81  A    between atoms: _177  and  _179
REMARK   82  A    between atoms: _179  and  _180
REMARK   83  A    between atoms: _179  and  _182
REMARK   84  A    between atoms: _182  and  _183
REMARK   85  A    between atoms: _186  and  _188
REMARK   86  A    between atoms: _188  and  _189
REMARK   87  A    between atoms: _192  and  _194
REMARK   88  A    between atoms: _194  and  _195
REMARK   89  A    between atoms: _194  and  _197
REMARK   90  A    between atoms: _197  and  _198
REMARK   91  A    between atoms: _200  and  _202
REMARK   92  A    between atoms: _202  and  _203
REMARK   93  A    between atoms: _202  and  _205
REMARK   94  A    between atoms: _208  and  _210
REMARK   95  A    between atoms: _210  and  _211
REMARK   96  A    between atoms: _210  and  _213
REMARK   97  A    between atoms: _213  and  _214
REMARK   98  A    between atoms: _219  and  _220
REMARK   99  A    between atoms: _222  and  _224
REMARK  100  A    between atoms: _224  and  _225
REMARK  101  A    between atoms: _224  and  _227
REMARK  102  A    between atoms: _227  and  _228
REMARK  103  A    between atoms: _228  and  _229
REMARK  104  A    between atoms: _234  and  _236
REMARK  105  A    between atoms: _236  and  _237
REMARK  106  A    between atoms: _239  and  _241
REMARK  107  A    between atoms: _241  and  _242
REMARK  108  A    between atoms: _241  and  _244
REMARK  109  A    between atoms: _244  and  _245
REMARK  110  A    between atoms: _248  and  _250
REMARK  111  A    between atoms: _250  and  _251
REMARK  112  A    between atoms: _250  and  _253
REMARK  113  A    between atoms: _253  and  _254
REMARK  114  A    between atoms: _257  and  _259
REMARK  115  A    between atoms: _259  and  _260
REMARK  116  A    between atoms: _259  and  _262
REMARK  117  A    between atoms: _262  and  _263
REMARK  118  A    between atoms: _266  and  _268
REMARK  119  A    between atoms: _268  and  _269
REMARK  120  A    between atoms: _268  and  _271
REMARK  121  A    between atoms: _271  and  _272
REMARK  122  A    between atoms: _277  and  _279
REMARK  123  A    between atoms: _279  and  _280
REMARK  124  A    between atoms: _279  and  _282
REMARK  125  A    between atoms: _285  and  _287
REMARK  126  A    between atoms: _287  and  _288
REMARK  127  A    between atoms: _287  and  _290
REMARK  128  A    between atoms: _290  and  _291
REMARK  129  A    between atoms: _296  and  _298
REMARK  130  A    between atoms: _298  and  _299
REMARK  131  A    between atoms: _298  and  _301
REMARK  132  A    between atoms: _301  and  _302
REMARK  133  A    between atoms: _302  and  _303
REMARK  134  A    between atoms: _303  and  _304
REMARK  135  A    between atoms: _313  and  _315
REMARK  136  A    between atoms: _315  and  _316
REMARK  137  A    between atoms: _315  and  _318
REMARK  138  A    between atoms: _318  and  _319
REMARK  139  A    between atoms: _324  and  _325
REMARK  140  A    between atoms: _327  and  _329
REMARK  141  A    between atoms: _329  and  _330
REMARK  142  A    between atoms: _329  and  _332
REMARK  143  A    between atoms: _332  and  _333
REMARK  144  A    between atoms: _338  and  _340
REMARK  145  A    between atoms: _340  and  _341
REMARK  146  A    between atoms: _340  and  _343
REMARK  147  A    between atoms: _343  and  _344
REMARK  148  A    between atoms: _348  and  _349
REMARK  149  A    between atoms: _354  and  _356
REMARK  150  A    between atoms: _356  and  _357
REMARK  151  A    between atoms: _356  and  _359
REMARK  152  A    between atoms: _359  and  _360
REMARK  153  A    between atoms: _362  and  _364
REMARK  154  A    between atoms: _364  and  _365
REMARK  155  A    between atoms: _364  and  _367
REMARK  156  A    between atoms: _370  and  _372
REMARK  157  A    between atoms: _372  and  _373
REMARK  158  A    between atoms: _372  and  _375
REMARK  159  A    between atoms: _375  and  _376
REMARK  160  A    between atoms: _379  and  _381
REMARK  161  A    between atoms: _381  and  _382
REMARK  162  A    between atoms: _381  and  _384
REMARK  163  A    between atoms: _384  and  _385
REMARK  164  A    between atoms: _390  and  _392
REMARK  165  A    between atoms: _392  and  _393
REMARK  166  A    between atoms: _392  and  _395
REMARK  167  A    between atoms: _395  and  _396
REMARK  168  A    between atoms: _399  and  _401
REMARK  169  A    between atoms: _401  and  _402
REMARK  170  A    between atoms: _401  and  _404
REMARK  171  A    between atoms: _404  and  _405
REMARK  172  A    between atoms: _405  and  _406
REMARK  173  A    between atoms: _409  and  _411
REMARK  174  A    between atoms: _411  and  _412
REMARK  175  A    between atoms: _411  and  _414
REMARK  176  A    between atoms: _414  and  _415
REMARK  177  A    between atoms: _415  and  _416
REMARK  178  A    between atoms: _421  and  _423
REMARK  179  A    between atoms: _423  and  _424
REMARK  180  A    between atoms: _423  and  _426
REMARK  181  A    between atoms: _426  and  _427
REMARK  182  A    between atoms: _430  and  _432
REMARK  183  A    between atoms: _432  and  _433
REMARK  184  A    between atoms: _432  and  _435
REMARK  185  A    between atoms: _435  and  _436
REMARK  186  A    between atoms: _441  and  _442
REMARK  187  A    between atoms: _444  and  _446
REMARK  188  A    between atoms: _446  and  _447
REMARK  189  A    between atoms: _446  and  _449
REMARK  190  A    between atoms: _449  and  _450
REMARK  191  A    between atoms: _453  and  _455
REMARK  192  A    between atoms: _455  and  _456
REMARK  193  A    between atoms: _455  and  _458
REMARK  194  A    between atoms: _461  and  _463
REMARK  195  A    between atoms: _463  and  _464
REMARK  196  A    between atoms: _463  and  _466
REMARK  197  A    between atoms: _466  and  _467
REMARK  198  A    between atoms: _471  and  _472
REMARK  199  A    between atoms: _477  and  _479
REMARK  200  A    between atoms: _479  and  _480
REMARK  201  A    between atoms: _479  and  _482
REMARK  202  A    between atoms: _485  and  _487
REMARK  203  A    between atoms: _487  and  _488
REMARK  204  A    between atoms: _487  and  _490
REMARK  205  A    between atoms: _490  and  _491
REMARK  206  A    between atoms: _494  and  _496
REMARK  207  A    between atoms: _496  and  _497
REMARK  208  A    between atoms: _496  and  _499
REMARK  209  A    between atoms: _499  and  _500
REMARK  210  A    between atoms: _503  and  _505
REMARK  211  A    between atoms: _505  and  _506
REMARK  212  A    between atoms: _505  and  _508
REMARK  213  A    between atoms: _508  and  _509
REMARK  214  A    between atoms: _512  and  _514
REMARK  215  A    between atoms: _514  and  _515
REMARK  216  A    between atoms: _514  and  _517
REMARK  217  A    between atoms: _517  and  _518
REMARK  218  A    between atoms: _523  and  _525
REMARK  219  A    between atoms: _525  and  _526
REMARK  220  A    between atoms: _525  and  _528
REMARK  221  A    between atoms: _530  and  _532
REMARK  222  A    between atoms: _532  and  _533
REMARK  223  A    between atoms: _532  and  _535
REMARK  224  A    between atoms: _535  and  _536
REMARK  225  A    between atoms: _542  and  _544
REMARK  226  A    between atoms: _544  and  _545
REMARK  227  A    between atoms: _544  and  _547
REMARK  228  A    between atoms: _550  and  _552
REMARK  229  A    between atoms: _552  and  _553
REMARK  230  A    between atoms: _552  and  _555
REMARK  231  A    between atoms: _555  and  _556
REMARK  232  A    between atoms: _559  and  _561
REMARK  233  A    between atoms: _561  and  _562
REMARK  234  A    between atoms: _561  and  _564
REMARK  235  A    between atoms: _567  and  _569
REMARK  236  A    between atoms: _569  and  _570
REMARK  237  A    between atoms: _569  and  _572
REMARK  238  A    between atoms: _572  and  _573
REMARK  239  A    between atoms: _578  and  _579
REMARK  240  A    between atoms: _581  and  _583
REMARK  241  A    between atoms: _583  and  _584
REMARK                            x       y       z     vdW  Elec       q    Type
REMARK                         _______ _______ _______ _____ _____    ______ ____
ROOT
ATOM      1  CA  ILE A   6      13.171  32.808  33.429  0.00  0.00    +0.149 C 
ENDROOT
BRANCH   1   3
ATOM      2  C   GLY A   5      10.872  33.150  32.771  0.00  0.00    +0.243 C 
ATOM      3  N   ILE A   6      11.748  32.593  33.594  0.00  0.00    -0.297 N 
ATOM      4  H   ILE A   6      11.408  31.991  34.371  0.00  0.00    +0.150 HD
ATOM      5  O   GLY A   5      11.204  33.865  31.824  0.00  0.00    -0.273 OA
BRANCH   2   6
ATOM      6  CA  GLY A   5       9.419  32.847  33.057  0.00  0.00    +0.176 C 
BRANCH   6   9
ATOM      7  C   GLU A   4       7.204  33.251  32.234  0.00  0.00    +0.241 C 
ATOM      8  O   GLU A   4       6.712  32.760  33.251  0.00  0.00    -0.273 OA
ATOM      9  N   GLY A   5       8.514  33.339  32.040  0.00  0.00    -0.295 N 
ATOM     10  H   GLY A   5       8.887  33.758  31.164  0.00  0.00    +0.150 HD
BRANCH   7  11
ATOM     11  CA  GLU A   4       6.309  33.791  31.131  0.00  0.00    +0.149 C 
BRANCH  11  13
ATOM     12  C   GLY A   3       4.431  32.564  30.170  0.00  0.00    +0.243 C 
ATOM     13  N   GLU A   4       5.026  33.108  31.226  0.00  0.00    -0.297 N 
ATOM     14  H   GLU A   4       4.559  33.044  32.153  0.00  0.00    +0.150 HD
ATOM     15  O   GLY A   3       4.890  32.619  29.029  0.00  0.00    -0.273 OA
BRANCH  12  16
ATOM     16  CA  GLY A   3       3.108  31.874  30.421  0.00  0.00    +0.176 C 
BRANCH  16  19
ATOM     17  C   CYS A   2       1.033  31.719  29.185  0.00  0.00    +0.242 C 
ATOM     18  O   CYS A   2       0.364  31.557  30.207  0.00  0.00    -0.273 OA
ATOM     19  N   GLY A   3       2.349  31.877  29.189  0.00  0.00    -0.295 N 
ATOM     20  H   GLY A   3       2.848  32.006  28.286  0.00  0.00    +0.150 HD
BRANCH  17  21
ATOM     21  CA  CYS A   2       0.381  31.760  27.812  0.00  0.00    +0.160 C 
BRANCH  21  23
ATOM     22  C   SER A   1      -1.147  29.973  27.191  0.00  0.00    +0.241 C 
ATOM     23  N   CYS A   2      -0.939  31.136  27.802  0.00  0.00    -0.296 N 
ATOM     24  H   CYS A   2      -1.731  31.610  28.281  0.00  0.00    +0.150 HD
ATOM     25  O   SER A   1      -0.258  29.353  26.606  0.00  0.00    -0.274 OA
BRANCH  22  26
ATOM     26  CA  SER A   1      -2.561  29.423  27.243  0.00  0.00    +0.174 C 
BRANCH  26  27
ATOM     27  N   SER A   1      -2.851  28.720  25.996  0.00  0.00    -0.236 NA
ATOM     28  H   SER A   1      -2.456  27.771  25.840  0.00  0.00    +0.142 HD
ENDBRANCH  26  27
BRANCH  26  29
ATOM     29  CB  SER A   1      -2.696  28.488  28.444  0.00  0.00    +0.163 C 
BRANCH  29  30
ATOM     30  OG  SER A   1      -4.056  28.243  28.746  0.00  0.00    -0.380 OA
ATOM     31  H   SER A   1      -4.116  27.636  29.526  0.00  0.00    +0.211 HD
ENDBRANCH  29  30
ENDBRANCH  26  29
ENDBRANCH  22  26
ENDBRANCH  21  23
BRANCH  21  32
ATOM     32  CB  CYS A   2       0.296  33.219  27.356  0.00  0.00    +0.098 C 
ATOM     33  SG  CYS A   2      -0.331  33.455  25.690  0.00  0.00    -0.080 S 
ENDBRANCH  21  32
ENDBRANCH  17  21
ENDBRANCH  16  19
ENDBRANCH  12  16
ENDBRANCH  11  13
BRANCH  11  34
ATOM     34  CB  GLU A   4       6.143  35.300  31.310  0.00  0.00    +0.041 C 
BRANCH  34  35
ATOM     35  CG  GLU A   4       5.247  35.961  30.287  0.00  0.00    +0.116 C 
BRANCH  35  36
ATOM     36  CD  GLU A   4       5.217  37.472  30.439  0.00  0.00    +0.365 C 
ATOM     37  OE2 GLU A   4       4.236  37.994  31.014  0.00  0.00    -0.246 OA
ATOM     38  OE1 GLU A   4       6.178  38.137  29.995  0.00  0.00    -0.246 OA
ENDBRANCH  35  36
ENDBRANCH  34  35
ENDBRANCH  11  34
ENDBRANCH   7  11
ENDBRANCH   6   9
ENDBRANCH   2   6
ENDBRANCH   1   3
BRANCH   1  39
ATOM     39  C   ILE A   6      13.884  31.498  33.115  0.00  0.00    +0.241 C 
ATOM     40  O   ILE A   6      13.473  30.429  33.574  0.00  0.00    -0.273 OA
ATOM     41  N   LEU A   7      14.949  31.588  32.325  0.00  0.00    -0.297 N 
ATOM     42  H   LEU A   7      15.241  32.521  31.970  0.00  0.00    +0.150 HD
BRANCH  41  43
ATOM     43  CA  LEU A   7      15.715  30.410  31.946  0.00  0.00    +0.149 C 
BRANCH  43  44
ATOM     44  C   LEU A   7      17.207  30.687  32.061  0.00  0.00    +0.241 C 
ATOM     45  N   ILE A   8      17.934  29.777  32.702  0.00  0.00    -0.297 N 
ATOM     46  H   ILE A   8      17.465  28.939  33.101  0.00  0.00    +0.150 HD
ATOM     47  O   LEU A   7      17.691  31.709  31.568  0.00  0.00    -0.273 OA
BRANCH  45  48
ATOM     48  CA  ILE A   8      19.374  29.930  32.856  0.00  0.00    +0.149 C 
BRANCH  48  49
ATOM     49  C   ILE A   8      20.126  28.804  32.149  0.00  0.00    +0.241 C 
ATOM     50  O   ILE A   8      19.737  27.637  32.225  0.00  0.00    -0.273 OA
ATOM     51  N   LYS A   9      21.201  29.164  31.456  0.00  0.00    -0.298 N 
ATOM     52  H   LYS A   9      21.459  30.170  31.407  0.00  0.00    +0.150 HD
BRANCH  51  53
ATOM     53  CA  LYS A   9      22.026  28.186  30.764  0.00  0.00    +0.137 C 
BRANCH  53  54
ATOM     54  C   LYS A   9      23.471  28.338  31.212  0.00  0.00    +0.227 C 
ATOM     55  O   LYS A   9      24.045  29.428  31.131  0.00  0.00    -0.286 OA
ENDBRANCH  53  54
BRANCH  53  56
ATOM     56  CB  LYS A   9      21.946  28.380  29.252  0.00  0.00    +0.028 C 
BRANCH  56  57
ATOM     57  CG  LYS A   9      22.972  27.559  28.485  0.00  0.00    -0.000 C 
BRANCH  57  58
ATOM     58  CD  LYS A   9      22.871  27.787  26.989  0.00  0.00    -0.024 C 
BRANCH  58  59
ATOM     59  CE  LYS A   9      23.849  26.897  26.234  0.00  0.00    -0.086 C 
BRANCH  59  60
ATOM     60  NZ  LYS A   9      25.275  27.197  26.534  0.00  0.00    +0.380 N 
ATOM     61  HZ1 LYS A   9      25.450  27.062  27.550  0.00  0.00    -0.089 HD
ATOM     62  HZ2 LYS A   9      25.483  28.182  26.273  0.00  0.00    -0.089 HD
ATOM     63  HZ3 LYS A   9      25.885  26.556  25.988  0.00  0.00    -0.089 HD
ENDBRANCH  59  60
ENDBRANCH  58  59
ENDBRANCH  57  58
ENDBRANCH  56  57
ENDBRANCH  53  56
ENDBRANCH  51  53
ENDBRANCH  48  49
BRANCH  48  64
ATOM     64  CB  ILE A   8      19.800  29.927  34.348  0.00  0.00    +0.027 C 
ATOM     65  CG2 ILE A   8      21.315  29.870  34.463  0.00  0.00    +0.002 C 
BRANCH  64  66
ATOM     66  CG1 ILE A   8      19.287  31.182  35.054  0.00  0.00    +0.002 C 
ATOM     67  CD1 ILE A   8      17.808  31.151  35.358  0.00  0.00    +0.000 C 
ENDBRANCH  64  66
ENDBRANCH  48  64
ENDBRANCH  45  48
ENDBRANCH  43  44
BRANCH  43  68
ATOM     68  CB  LEU A   7      15.399  30.024  30.503  0.00  0.00    +0.029 C 
BRANCH  68  69
ATOM     69  CG  LEU A   7      15.258  28.538  30.177  0.00  0.00    +0.002 C 
ATOM     70  CD2 LEU A   7      16.246  27.709  30.977  0.00  0.00    +0.000 C 
ATOM     71  CD1 LEU A   7      15.509  28.357  28.688  0.00  0.00    +0.000 C 
ENDBRANCH  68  69
ENDBRANCH  43  68
ENDBRANCH  41  43
ENDBRANCH   1  39
BRANCH   1  72
ATOM     72  CB  ILE A   6      13.762  33.457  34.698  0.00  0.00    +0.027 C 
ATOM     73  CG2 ILE A   6      14.754  32.521  35.373  0.00  0.00    +0.002 C 
BRANCH  72  74
ATOM     74  CG1 ILE A   6      14.416  34.786  34.328  0.00  0.00    +0.002 C 
ATOM     75  CD1 ILE A   6      13.444  35.797  33.761  0.00  0.00    +0.000 C 
ENDBRANCH  72  74
ENDBRANCH   1  72
TORSDOF 35
REMARK  Name = ../refined-set-2016/3e3c/3e3c_pocket.pdb
REMARK  241 active torsions:
REMARK  status: ('A' for Active; 'I' for Inactive)
REMARK    1  A    between atoms: _1  and  _3
REMARK    2  A    between atoms: _3  and  _4
REMARK    3  A    between atoms: _3  and  _6
REMARK    4  A    between atoms: _6  and  _7
REMARK    5  A    between atoms: _9  and  _11
REMARK    6  A    between atoms: _11  and  _12
REMARK    7  A    between atoms: _11  and  _14
REMARK    8  A    between atoms: _14  and  _15
REMARK    9  A    between atoms: _15  and  _16
REMARK   10  A    between atoms: _18  and  _20
REMARK   11  A    between atoms: _20  and  _21
REMARK   12  A    between atoms: _20  and  _23
REMARK   13  A    between atoms: _23  and  _24
REMARK   14  A    between atoms: _27  and  _29
REMARK   15  A    between atoms: _29  and  _30
REMARK   16  A    between atoms: _29  and  _32
REMARK   17  A    between atoms: _32  and  _33
REMARK   18  A    between atoms: _36  and  _38
REMARK   19  A    between atoms: _38  and  _39
REMARK   20  A    between atoms: _38  and  _41
REMARK   21  A    between atoms: _41  and  _42
REMARK   22  A    between atoms: _48  and  _50
REMARK   23  A    between atoms: _50  and  _51
REMARK   24  A    between atoms: _50  and  _53
REMARK   25  A    between atoms: _53  and  _54
REMARK   26  A    between atoms: _57  and  _59
REMARK   27  A    between atoms: _59  and  _60
REMARK   28  A    between atoms: _59  and  _62
REMARK   29  A    between atoms: _62  and  _63
REMARK   30  A    between atoms: _65  and  _67
REMARK   31  A    between atoms: _67  and  _68
REMARK   32  A    between atoms: _67  and  _70
REMARK   33  A    between atoms: _70  and  _71
REMARK   34  A    between atoms: _73  and  _75
REMARK   35  A    between atoms: _75  and  _76
REMARK   36  A    between atoms: _75  and  _78
REMARK   37  A    between atoms: _80  and  _82
REMARK   38  A    between atoms: _82  and  _83
REMARK   39  A    between atoms: _85  and  _87
REMARK   40  A    between atoms: _87  and  _88
REMARK   41  A    between atoms: _87  and  _90
REMARK   42  A    between atoms: _90  and  _91
REMARK   43  A    between atoms: _91  and  _92
REMARK   44  A    between atoms: _95  and  _97
REMARK   45  A    between atoms: _97  and  _98
REMARK   46  A    between atoms: _100  and  _102
REMARK   47  A    between atoms: _102  and  _103
REMARK   48  A    between atoms: _102  and  _105
REMARK   49  A    between atoms: _105  and  _106
REMARK   50  A    between atoms: _109  and  _111
REMARK   51  A    between atoms: _111  and  _112
REMARK   52  A    between atoms: _111  and  _114
REMARK   53  A    between atoms: _114  and  _115
REMARK   54  A    between atoms: _118  and  _120
REMARK   55  A    between atoms: _120  and  _121
REMARK   56  A    between atoms: _120  and  _123
REMARK   57  A    between atoms: _123  and  _124
REMARK   58  A    between atoms: _127  and  _129
REMARK   59  A    between atoms: _129  and  _130
REMARK   60  A    between atoms: _129  and  _132
REMARK   61  A    between atoms: _132  and  _133
REMARK   62  A    between atoms: _133  and  _134
REMARK   63  A    between atoms: _134  and  _135
REMARK   64  A    between atoms: _135  and  _136
REMARK   65  A    between atoms: _140  and  _142
REMARK   66  A    between atoms: _142  and  _143
REMARK   67  A    between atoms: _142  and  _145
REMARK   68  A    between atoms: _145  and  _146
REMARK   69  A    between atoms: _149  and  _151
REMARK   70  A    between atoms: _151  and  _152
REMARK   71  A    between atoms: _151  and  _154
REMARK   72  A    between atoms: _154  and  _155
REMARK   73  A    between atoms: _158  and  _160
REMARK   74  A    between atoms: _160  and  _161
REMARK   75  A    between atoms: _163  and  _165
REMARK   76  A    between atoms: _165  and  _166
REMARK   77  A    between atoms: _168  and  _170
REMARK   78  A    between atoms: _170  and  _171
REMARK   79  A    between atoms: _170  and  _173
REMARK   80  A    between atoms: _173  and  _174
REMARK   81  A    between atoms: _177  and  _179
REMARK   82  A    between atoms: _179  and  _180
REMARK   83  A    between atoms: _179  and  _182
REMARK   84  A    between atoms: _182  and  _183
REMARK   85  A    between atoms: _186  and  _188
REMARK   86  A    between atoms: _188  and  _189
REMARK   87  A    between atoms: _192  and  _194
REMARK   88  A    between atoms: _194  and  _195
REMARK   89  A    between atoms: _194  and  _197
REMARK   90  A    between atoms: _197  and  _198
REMARK   91  A    between atoms: _200  and  _202
REMARK   92  A    between atoms: _202  and  _203
REMARK   93  A    between atoms: _202  and  _205
REMARK   94  A    between atoms: _208  and  _210
REMARK   95  A    between atoms: _210  and  _211
REMARK   96  A    between atoms: _210  and  _213
REMARK   97  A    between atoms: _213  and  _214
REMARK   98  A    between atoms: _219  and  _220
REMARK   99  A    between atoms: _222  and  _224
REMARK  100  A    between atoms: _224  and  _225
REMARK  101  A    between atoms: _224  and  _227
REMARK  102  A    between atoms: _227  and  _228
REMARK  103  A    between atoms: _228  and  _229
REMARK  104  A    between atoms: _234  and  _236
REMARK  105  A    between atoms: _236  and  _237
REMARK  106  A    between atoms: _239  and  _241
REMARK  107  A    between atoms: _241  and  _242
REMARK  108  A    between atoms: _241  and  _244
REMARK  109  A    between atoms: _244  and  _245
REMARK  110  A    between atoms: _248  and  _250
REMARK  111  A    between atoms: _250  and  _251
REMARK  112  A    between atoms: _250  and  _253
REMARK  113  A    between atoms: _253  and  _254
REMARK  114  A    between atoms: _257  and  _259
REMARK  115  A    between atoms: _259  and  _260
REMARK  116  A    between atoms: _259  and  _262
REMARK  117  A    between atoms: _262  and  _263
REMARK  118  A    between atoms: _266  and  _268
REMARK  119  A    between atoms: _268  and  _269
REMARK  120  A    between atoms: _268  and  _271
REMARK  121  A    between atoms: _271  and  _272
REMARK  122  A    between atoms: _277  and  _279
REMARK  123  A    between atoms: _279  and  _280
REMARK  124  A    between atoms: _279  and  _282
REMARK  125  A    between atoms: _285  and  _287
REMARK  126  A    between atoms: _287  and  _288
REMARK  127  A    between atoms: _287  and  _290
REMARK  128  A    between atoms: _290  and  _291
REMARK  129  A    between atoms: _296  and  _298
REMARK  130  A    between atoms: _298  and  _299
REMARK  131  A    between atoms: _298  and  _301
REMARK  132  A    between atoms: _301  and  _302
REMARK  133  A    between atoms: _302  and  _303
REMARK  134  A    between atoms: _303  and  _304
REMARK  135  A    between atoms: _313  and  _315
REMARK  136  A    between atoms: _315  and  _316
REMARK  137  A    between atoms: _315  and  _318
REMARK  138  A    between atoms: _318  and  _319
REMARK  139  A    between atoms: _324  and  _325
REMARK  140  A    between atoms: _327  and  _329
REMARK  141  A    between atoms: _329  and  _330
REMARK  142  A    between atoms: _329  and  _332
REMARK  143  A    between atoms: _332  and  _333
REMARK  144  A    between atoms: _338  and  _340
REMARK  145  A    between atoms: _340  and  _341
REMARK  146  A    between atoms: _340  and  _343
REMARK  147  A    between atoms: _343  and  _344
REMARK  148  A    between atoms: _348  and  _349
REMARK  149  A    between atoms: _354  and  _356
REMARK  150  A    between atoms: _356  and  _357
REMARK  151  A    between atoms: _356  and  _359
REMARK  152  A    between atoms: _359  and  _360
REMARK  153  A    between atoms: _362  and  _364
REMARK  154  A    between atoms: _364  and  _365
REMARK  155  A    between atoms: _364  and  _367
REMARK  156  A    between atoms: _370  and  _372
REMARK  157  A    between atoms: _372  and  _373
REMARK  158  A    between atoms: _372  and  _375
REMARK  159  A    between atoms: _375  and  _376
REMARK  160  A    between atoms: _379  and  _381
REMARK  161  A    between atoms: _381  and  _382
REMARK  162  A    between atoms: _381  and  _384
REMARK  163  A    between atoms: _384  and  _385
REMARK  164  A    between atoms: _390  and  _392
REMARK  165  A    between atoms: _392  and  _393
REMARK  166  A    between atoms: _392  and  _395
REMARK  167  A    between atoms: _395  and  _396
REMARK  168  A    between atoms: _399  and  _401
REMARK  169  A    between atoms: _401  and  _402
REMARK  170  A    between atoms: _401  and  _404
REMARK  171  A    between atoms: _404  and  _405
REMARK  172  A    between atoms: _405  and  _406
REMARK  173  A    between atoms: _409  and  _411
REMARK  174  A    between atoms: _411  and  _412
REMARK  175  A    between atoms: _411  and  _414
REMARK  176  A    between atoms: _414  and  _415
REMARK  177  A    between atoms: _415  and  _416
REMARK  178  A    between atoms: _421  and  _423
REMARK  179  A    between atoms: _423  and  _424
REMARK  180  A    between atoms: _423  and  _426
REMARK  181  A    between atoms: _426  and  _427
REMARK  182  A    between atoms: _430  and  _432
REMARK  183  A    between atoms: _432  and  _433
REMARK  184  A    between atoms: _432  and  _435
REMARK  185  A    between atoms: _435  and  _436
REMARK  186  A    between atoms: _441  and  _442
REMARK  187  A    between atoms: _444  and  _446
REMARK  188  A    between atoms: _446  and  _447
REMARK  189  A    between atoms: _446  and  _449
REMARK  190  A    between atoms: _449  and  _450
REMARK  191  A    between atoms: _453  and  _455
REMARK  192  A    between atoms: _455  and  _456
REMARK  193  A    between atoms: _455  and  _458
REMARK  194  A    between atoms: _461  and  _463
REMARK  195  A    between atoms: _463  and  _464
REMARK  196  A    between atoms: _463  and  _466
REMARK  197  A    between atoms: _466  and  _467
REMARK  198  A    between atoms: _471  and  _472
REMARK  199  A    between atoms: _477  and  _479
REMARK  200  A    between atoms: _479  and  _480
REMARK  201  A    between atoms: _479  and  _482
REMARK  202  A    between atoms: _485  and  _487
REMARK  203  A    between atoms: _487  and  _488
REMARK  204  A    between atoms: _487  and  _490
REMARK  205  A    between atoms: _490  and  _491
REMARK  206  A    between atoms: _494  and  _496
REMARK  207  A    between atoms: _496  and  _497
REMARK  208  A    between atoms: _496  and  _499
REMARK  209  A    between atoms: _499  and  _500
REMARK  210  A    between atoms: _503  and  _505
REMARK  211  A    between atoms: _505  and  _506
REMARK  212  A    between atoms: _505  and  _508
REMARK  213  A    between atoms: _508  and  _509
REMARK  214  A    between atoms: _512  and  _514
REMARK  215  A    between atoms: _514  and  _515
REMARK  216  A    between atoms: _514  and  _517
REMARK  217  A    between atoms: _517  and  _518
REMARK  218  A    between atoms: _523  and  _525
REMARK  219  A    between atoms: _525  and  _526
REMARK  220  A    between atoms: _525  and  _528
REMARK  221  A    between atoms: _530  and  _532
REMARK  222  A    between atoms: _532  and  _533
REMARK  223  A    between atoms: _532  and  _535
REMARK  224  A    between atoms: _535  and  _536
REMARK  225  A    between atoms: _542  and  _544
REMARK  226  A    between atoms: _544  and  _545
REMARK  227  A    between atoms: _544  and  _547
REMARK  228  A    between atoms: _550  and  _552
REMARK  229  A    between atoms: _552  and  _553
REMARK  230  A    between atoms: _552  and  _555
REMARK  231  A    between atoms: _555  and  _556
REMARK  232  A    between atoms: _559  and  _561
REMARK  233  A    between atoms: _561  and  _562
REMARK  234  A    between atoms: _561  and  _564
REMARK  235  A    between atoms: _567  and  _569
REMARK  236  A    between atoms: _569  and  _570
REMARK  237  A    between atoms: _569  and  _572
REMARK  238  A    between atoms: _572  and  _573
REMARK  239  A    between atoms: _578  and  _579
REMARK  240  A    between atoms: _581  and  _583
REMARK  241  A    between atoms: _583  and  _584
REMARK                            x       y       z     vdW  Elec       q    Type
REMARK                         _______ _______ _______ _____ _____    ______ ____
ROOT
ATOM      1  CA  ALA A   7       3.939  27.647  39.070  0.00  0.00    +0.149 C 
ATOM      2  CB  ALA A   7       2.629  27.503  38.314  0.00  0.00    +0.031 C 
ENDROOT
BRANCH   1   5
ATOM      3  C   ILE A   6       4.678  29.881  39.640  0.00  0.00    +0.241 C 
ATOM      4  O   ILE A   6       4.310  29.730  40.804  0.00  0.00    -0.273 OA
ATOM      5  N   ALA A   7       4.562  28.922  38.724  0.00  0.00    -0.297 N 
ATOM      6  H   ALA A   7       4.916  29.081  37.759  0.00  0.00    +0.150 HD
BRANCH   3   7
ATOM      7  CA  ILE A   6       5.316  31.195  39.210  0.00  0.00    +0.149 C 
BRANCH   7  10
ATOM      8  C   ASP A   5       7.159  30.468  37.827  0.00  0.00    +0.241 C 
ATOM      9  O   ASP A   5       7.636  29.835  38.768  0.00  0.00    -0.273 OA
ATOM     10  N   ILE A   6       6.027  31.153  37.934  0.00  0.00    -0.297 N 
ATOM     11  H   ILE A   6       5.646  31.660  37.110  0.00  0.00    +0.150 HD
BRANCH   8  12
ATOM     12  CA  ASP A   5       7.869  30.483  36.476  0.00  0.00    +0.160 C 
BRANCH  12  14
ATOM     13  C   GLY A   4      10.060  29.527  36.051  0.00  0.00    +0.243 C 
ATOM     14  N   ASP A   5       8.805  29.375  36.449  0.00  0.00    -0.296 N 
ATOM     15  H   ASP A   5       8.482  28.434  36.751  0.00  0.00    +0.150 HD
ATOM     16  O   GLY A   4      10.518  30.599  35.662  0.00  0.00    -0.273 OA
BRANCH  13  17
ATOM     17  CA  GLY A   4      10.914  28.280  36.094  0.00  0.00    +0.176 C 
BRANCH  17  20
ATOM     18  C   GLY A   3      13.176  27.594  35.665  0.00  0.00    +0.243 C 
ATOM     19  O   GLY A   3      13.080  26.660  36.460  0.00  0.00    -0.273 OA
ATOM     20  N   GLY A   4      12.183  28.441  35.421  0.00  0.00    -0.295 N 
ATOM     21  H   GLY A   4      12.318  29.220  34.746  0.00  0.00    +0.150 HD
BRANCH  18  22
ATOM     22  CA  GLY A   3      14.464  27.828  34.910  0.00  0.00    +0.176 C 
BRANCH  22  24
ATOM     23  C   THR A   2      16.583  26.737  34.579  0.00  0.00    +0.243 C 
ATOM     24  N   GLY A   3      15.324  26.666  34.991  0.00  0.00    -0.295 N 
ATOM     25  H   GLY A   3      14.953  25.773  35.373  0.00  0.00    +0.150 HD
ATOM     26  O   THR A   2      17.077  27.759  34.105  0.00  0.00    -0.273 OA
BRANCH  23  27
ATOM     27  CA  THR A   2      17.406  25.466  34.710  0.00  0.00    +0.176 C 
BRANCH  27  29
ATOM     28  C   ILE A   1      18.471  24.288  32.874  0.00  0.00    +0.238 C 
ATOM     29  N   THR A   2      18.311  25.396  33.581  0.00  0.00    -0.295 N 
ATOM     30  H   THR A   2      18.853  26.244  33.317  0.00  0.00    +0.150 HD
ATOM     31  O   ILE A   1      17.881  23.235  33.120  0.00  0.00    -0.274 OA
BRANCH  28  32
ATOM     32  CA  ILE A   1      19.463  24.395  31.725  0.00  0.00    +0.145 C 
BRANCH  32  33
ATOM     33  CB  ILE A   1      18.753  24.133  30.380  0.00  0.00    +0.025 C 
ATOM     34  CG2 ILE A   1      17.329  24.677  30.410  0.00  0.00    +0.002 C 
BRANCH  33  35
ATOM     35  CG1 ILE A   1      19.563  24.771  29.252  0.00  0.00    +0.002 C 
ATOM     36  CD1 ILE A   1      18.858  24.783  27.920  0.00  0.00    +0.000 C 
ENDBRANCH  33  35
ENDBRANCH  32  33
BRANCH  32  37
ATOM     37  N   ILE A   1      20.544  23.456  31.941  0.00  0.00    -0.238 NA
ATOM     38  H   ILE A   1      20.315  22.462  32.146  0.00  0.00    +0.142 HD
ENDBRANCH  32  37
ENDBRANCH  28  32
ENDBRANCH  27  29
BRANCH  27  39
ATOM     39  CB  THR A   2      18.192  25.491  36.040  0.00  0.00    +0.137 C 
ATOM     40  CG2 THR A   2      18.879  24.159  36.284  0.00  0.00    +0.034 C 
BRANCH  39  41
ATOM     41  OG1 THR A   2      19.187  26.518  35.982  0.00  0.00    -0.382 OA
ATOM     42  HG1 THR A   2      19.807  26.333  35.233  0.00  0.00    +0.210 HD
ENDBRANCH  39  41
ENDBRANCH  27  39
ENDBRANCH  23  27
ENDBRANCH  22  24
ENDBRANCH  18  22
ENDBRANCH  17  20
ENDBRANCH  13  17
ENDBRANCH  12  14
BRANCH  12  43
ATOM     43  CB  ASP A   5       6.877  30.349  35.320  0.00  0.00    +0.143 C 
BRANCH  43  44
ATOM     44  CG  ASP A   5       6.264  28.971  35.235  0.00  0.00    +0.367 C 
ATOM     45  OD2 ASP A   5       5.886  28.413  36.290  0.00  0.00    -0.246 OA
ATOM     46  OD1 ASP A   5       6.156  28.450  34.107  0.00  0.00    -0.246 OA
ENDBRANCH  43  44
ENDBRANCH  12  43
ENDBRANCH   8  12
ENDBRANCH   7  10
BRANCH   7  47
ATOM     47  CB  ILE A   6       4.222  32.311  39.233  0.00  0.00    +0.027 C 
ATOM     48  CG2 ILE A   6       4.857  33.650  39.554  0.00  0.00    +0.002 C 
BRANCH  47  49
ATOM     49  CG1 ILE A   6       3.480  32.377  37.893  0.00  0.00    +0.002 C 
ATOM     50  CD1 ILE A   6       2.651  31.151  37.573  0.00  0.00    +0.000 C 
ENDBRANCH  47  49
ENDBRANCH   7  47
ENDBRANCH   3   7
ENDBRANCH   1   5
BRANCH   1  51
ATOM     51  C   ALA A   7       4.797  26.400  38.859  0.00  0.00    +0.241 C 
ATOM     52  O   ALA A   7       4.563  25.373  39.496  0.00  0.00    -0.273 OA
ATOM     53  N   SER A   8       5.786  26.478  37.976  0.00  0.00    -0.295 N 
ATOM     54  H   SER A   8       5.957  27.369  37.468  0.00  0.00    +0.150 HD
BRANCH  53  55
ATOM     55  CA  SER A   8       6.633  25.321  37.715  0.00  0.00    +0.178 C 
BRANCH  55  56
ATOM     56  C   SER A   8       8.092  25.694  37.503  0.00  0.00    +0.243 C 
ATOM     57  N   VAL A   9       8.968  24.706  37.645  0.00  0.00    -0.297 N 
ATOM     58  H   VAL A   9       8.623  23.761  37.909  0.00  0.00    +0.150 HD
ATOM     59  O   SER A   8       8.414  26.851  37.221  0.00  0.00    -0.273 OA
BRANCH  57  60
ATOM     60  CA  VAL A   9      10.399  24.903  37.442  0.00  0.00    +0.149 C 
BRANCH  60  61
ATOM     61  C   VAL A   9      10.876  23.832  36.474  0.00  0.00    +0.241 C 
ATOM     62  O   VAL A   9      10.230  22.796  36.321  0.00  0.00    -0.273 OA
ATOM     63  N   TYR A  10      12.001  24.068  35.814  0.00  0.00    -0.297 N 
ATOM     64  H   TYR A  10      12.529  24.950  35.975  0.00  0.00    +0.150 HD
BRANCH  63  65
ATOM     65  CA  TYR A  10      12.489  23.087  34.867  0.00  0.00    +0.153 C 
BRANCH  65  66
ATOM     66  C   TYR A  10      13.996  22.977  34.729  0.00  0.00    +0.241 C 
ATOM     67  O   TYR A  10      14.716  23.972  34.739  0.00  0.00    -0.273 OA
ATOM     68  N   GLN A  11      14.454  21.739  34.590  0.00  0.00    -0.297 N 
ATOM     69  H   GLN A  11      13.773  20.953  34.591  0.00  0.00    +0.150 HD
BRANCH  68  70
ATOM     70  CA  GLN A  11      15.866  21.434  34.436  0.00  0.00    +0.149 C 
BRANCH  70  71
ATOM     71  C   GLN A  11      16.074  20.466  33.286  0.00  0.00    +0.241 C 
ATOM     72  O   GLN A  11      15.195  19.664  32.970  0.00  0.00    -0.273 OA
ATOM     73  N   GLY A  12      17.251  20.540  32.677  0.00  0.00    -0.296 N 
ATOM     74  H   GLY A  12      17.954  21.233  33.003  0.00  0.00    +0.150 HD
BRANCH  73  75
ATOM     75  CA  GLY A  12      17.570  19.669  31.565  0.00  0.00    +0.163 C 
BRANCH  75  76
ATOM     76  C   GLY A  12      18.990  19.902  31.100  0.00  0.00    +0.229 C 
ATOM     77  O   GLY A  12      19.557  20.973  31.320  0.00  0.00    -0.286 OA
ENDBRANCH  75  76
ENDBRANCH  73  75
ENDBRANCH  70  71
BRANCH  70  78
ATOM     78  CB  GLN A  11      16.416  20.804  35.708  0.00  0.00    +0.039 C 
BRANCH  78  79
ATOM     79  CG  GLN A  11      16.608  21.766  36.834  0.00  0.00    +0.087 C 
BRANCH  79  80
ATOM     80  CD  GLN A  11      17.141  21.081  38.062  0.00  0.00    +0.219 C 
ATOM     81  OE1 GLN A  11      16.402  20.402  38.780  0.00  0.00    -0.275 OA
ATOM     82  NE2 GLN A  11      18.441  21.239  38.308  0.00  0.00    -0.329 N 
ATOM     83 HE21 GLN A  11      18.873  20.780  39.135  0.00  0.00    +0.145 HD
ATOM     84 HE22 GLN A  11      19.023  21.822  37.673  0.00  0.00    +0.145 HD
ENDBRANCH  79  80
ENDBRANCH  78  79
ENDBRANCH  70  78
ENDBRANCH  68  70
ENDBRANCH  65  66
BRANCH  65  85
ATOM     85  CB  TYR A  10      11.855  23.340  33.497  0.00  0.00    +0.055 C 
BRANCH  85  86
ATOM     86  CG  TYR A  10      11.236  24.708  33.340  0.00  0.00    -0.020 A 
ATOM     87  CD2 TYR A  10       9.884  24.911  33.609  0.00  0.00    -0.001 A 
ATOM     88  CE2 TYR A  10       9.308  26.173  33.506  0.00  0.00    +0.036 A 
ATOM     89  CZ  TYR A  10      10.088  27.256  33.121  0.00  0.00    +0.134 A 
ATOM     90  CE1 TYR A  10      11.437  27.080  32.842  0.00  0.00    +0.036 A 
ATOM     91  CD1 TYR A  10      12.003  25.805  32.955  0.00  0.00    -0.001 A 
BRANCH  89  92
ATOM     92  OH  TYR A  10       9.513  28.509  33.025  0.00  0.00    -0.506 OA
ATOM     93  HH  TYR A  10      10.199  29.165  32.741  0.00  0.00    +0.292 HD
ENDBRANCH  89  92
ENDBRANCH  85  86
ENDBRANCH  65  85
ENDBRANCH  63  65
ENDBRANCH  60  61
BRANCH  60  94
ATOM     94  CB  VAL A   9      11.196  24.778  38.761  0.00  0.00    +0.027 C 
ATOM     95  CG2 VAL A   9      10.770  25.879  39.725  0.00  0.00    +0.002 C 
ATOM     96  CG1 VAL A   9      10.982  23.402  39.376  0.00  0.00    +0.002 C 
ENDBRANCH  60  94
ENDBRANCH  57  60
ENDBRANCH  55  56
BRANCH  55  97
ATOM     97  CB  SER A   8       6.127  24.580  36.478  0.00  0.00    +0.166 C 
BRANCH  97  98
ATOM     98  OG  SER A   8       4.736  24.325  36.572  0.00  0.00    -0.380 OA
ATOM     99  H   SER A   8       4.434  23.845  35.760  0.00  0.00    +0.211 HD
ENDBRANCH  97  98
ENDBRANCH  55  97
ENDBRANCH  53  55
ENDBRANCH   1  51
TORSDOF 41
REMARK  Name = ../refined-set-2016/3e3c/3e3c_pocket.pdb
REMARK  241 active torsions:
REMARK  status: ('A' for Active; 'I' for Inactive)
REMARK    1  A    between atoms: _1  and  _3
REMARK    2  A    between atoms: _3  and  _4
REMARK    3  A    between atoms: _3  and  _6
REMARK    4  A    between atoms: _6  and  _7
REMARK    5  A    between atoms: _9  and  _11
REMARK    6  A    between atoms: _11  and  _12
REMARK    7  A    between atoms: _11  and  _14
REMARK    8  A    between atoms: _14  and  _15
REMARK    9  A    between atoms: _15  and  _16
REMARK   10  A    between atoms: _18  and  _20
REMARK   11  A    between atoms: _20  and  _21
REMARK   12  A    between atoms: _20  and  _23
REMARK   13  A    between atoms: _23  and  _24
REMARK   14  A    between atoms: _27  and  _29
REMARK   15  A    between atoms: _29  and  _30
REMARK   16  A    between atoms: _29  and  _32
REMARK   17  A    between atoms: _32  and  _33
REMARK   18  A    between atoms: _36  and  _38
REMARK   19  A    between atoms: _38  and  _39
REMARK   20  A    between atoms: _38  and  _41
REMARK   21  A    between atoms: _41  and  _42
REMARK   22  A    between atoms: _48  and  _50
REMARK   23  A    between atoms: _50  and  _51
REMARK   24  A    between atoms: _50  and  _53
REMARK   25  A    between atoms: _53  and  _54
REMARK   26  A    between atoms: _57  and  _59
REMARK   27  A    between atoms: _59  and  _60
REMARK   28  A    between atoms: _59  and  _62
REMARK   29  A    between atoms: _62  and  _63
REMARK   30  A    between atoms: _65  and  _67
REMARK   31  A    between atoms: _67  and  _68
REMARK   32  A    between atoms: _67  and  _70
REMARK   33  A    between atoms: _70  and  _71
REMARK   34  A    between atoms: _73  and  _75
REMARK   35  A    between atoms: _75  and  _76
REMARK   36  A    between atoms: _75  and  _78
REMARK   37  A    between atoms: _80  and  _82
REMARK   38  A    between atoms: _82  and  _83
REMARK   39  A    between atoms: _85  and  _87
REMARK   40  A    between atoms: _87  and  _88
REMARK   41  A    between atoms: _87  and  _90
REMARK   42  A    between atoms: _90  and  _91
REMARK   43  A    between atoms: _91  and  _92
REMARK   44  A    between atoms: _95  and  _97
REMARK   45  A    between atoms: _97  and  _98
REMARK   46  A    between atoms: _100  and  _102
REMARK   47  A    between atoms: _102  and  _103
REMARK   48  A    between atoms: _102  and  _105
REMARK   49  A    between atoms: _105  and  _106
REMARK   50  A    between atoms: _109  and  _111
REMARK   51  A    between atoms: _111  and  _112
REMARK   52  A    between atoms: _111  and  _114
REMARK   53  A    between atoms: _114  and  _115
REMARK   54  A    between atoms: _118  and  _120
REMARK   55  A    between atoms: _120  and  _121
REMARK   56  A    between atoms: _120  and  _123
REMARK   57  A    between atoms: _123  and  _124
REMARK   58  A    between atoms: _127  and  _129
REMARK   59  A    between atoms: _129  and  _130
REMARK   60  A    between atoms: _129  and  _132
REMARK   61  A    between atoms: _132  and  _133
REMARK   62  A    between atoms: _133  and  _134
REMARK   63  A    between atoms: _134  and  _135
REMARK   64  A    between atoms: _135  and  _136
REMARK   65  A    between atoms: _140  and  _142
REMARK   66  A    between atoms: _142  and  _143
REMARK   67  A    between atoms: _142  and  _145
REMARK   68  A    between atoms: _145  and  _146
REMARK   69  A    between atoms: _149  and  _151
REMARK   70  A    between atoms: _151  and  _152
REMARK   71  A    between atoms: _151  and  _154
REMARK   72  A    between atoms: _154  and  _155
REMARK   73  A    between atoms: _158  and  _160
REMARK   74  A    between atoms: _160  and  _161
REMARK   75  A    between atoms: _163  and  _165
REMARK   76  A    between atoms: _165  and  _166
REMARK   77  A    between atoms: _168  and  _170
REMARK   78  A    between atoms: _170  and  _171
REMARK   79  A    between atoms: _170  and  _173
REMARK   80  A    between atoms: _173  and  _174
REMARK   81  A    between atoms: _177  and  _179
REMARK   82  A    between atoms: _179  and  _180
REMARK   83  A    between atoms: _179  and  _182
REMARK   84  A    between atoms: _182  and  _183
REMARK   85  A    between atoms: _186  and  _188
REMARK   86  A    between atoms: _188  and  _189
REMARK   87  A    between atoms: _192  and  _194
REMARK   88  A    between atoms: _194  and  _195
REMARK   89  A    between atoms: _194  and  _197
REMARK   90  A    between atoms: _197  and  _198
REMARK   91  A    between atoms: _200  and  _202
REMARK   92  A    between atoms: _202  and  _203
REMARK   93  A    between atoms: _202  and  _205
REMARK   94  A    between atoms: _208  and  _210
REMARK   95  A    between atoms: _210  and  _211
REMARK   96  A    between atoms: _210  and  _213
REMARK   97  A    between atoms: _213  and  _214
REMARK   98  A    between atoms: _219  and  _220
REMARK   99  A    between atoms: _222  and  _224
REMARK  100  A    between atoms: _224  and  _225
REMARK  101  A    between atoms: _224  and  _227
REMARK  102  A    between atoms: _227  and  _228
REMARK  103  A    between atoms: _228  and  _229
REMARK  104  A    between atoms: _234  and  _236
REMARK  105  A    between atoms: _236  and  _237
REMARK  106  A    between atoms: _239  and  _241
REMARK  107  A    between atoms: _241  and  _242
REMARK  108  A    between atoms: _241  and  _244
REMARK  109  A    between atoms: _244  and  _245
REMARK  110  A    between atoms: _248  and  _250
REMARK  111  A    between atoms: _250  and  _251
REMARK  112  A    between atoms: _250  and  _253
REMARK  113  A    between atoms: _253  and  _254
REMARK  114  A    between atoms: _257  and  _259
REMARK  115  A    between atoms: _259  and  _260
REMARK  116  A    between atoms: _259  and  _262
REMARK  117  A    between atoms: _262  and  _263
REMARK  118  A    between atoms: _266  and  _268
REMARK  119  A    between atoms: _268  and  _269
REMARK  120  A    between atoms: _268  and  _271
REMARK  121  A    between atoms: _271  and  _272
REMARK  122  A    between atoms: _277  and  _279
REMARK  123  A    between atoms: _279  and  _280
REMARK  124  A    between atoms: _279  and  _282
REMARK  125  A    between atoms: _285  and  _287
REMARK  126  A    between atoms: _287  and  _288
REMARK  127  A    between atoms: _287  and  _290
REMARK  128  A    between atoms: _290  and  _291
REMARK  129  A    between atoms: _296  and  _298
REMARK  130  A    between atoms: _298  and  _299
REMARK  131  A    between atoms: _298  and  _301
REMARK  132  A    between atoms: _301  and  _302
REMARK  133  A    between atoms: _302  and  _303
REMARK  134  A    between atoms: _303  and  _304
REMARK  135  A    between atoms: _313  and  _315
REMARK  136  A    between atoms: _315  and  _316
REMARK  137  A    between atoms: _315  and  _318
REMARK  138  A    between atoms: _318  and  _319
REMARK  139  A    between atoms: _324  and  _325
REMARK  140  A    between atoms: _327  and  _329
REMARK  141  A    between atoms: _329  and  _330
REMARK  142  A    between atoms: _329  and  _332
REMARK  143  A    between atoms: _332  and  _333
REMARK  144  A    between atoms: _338  and  _340
REMARK  145  A    between atoms: _340  and  _341
REMARK  146  A    between atoms: _340  and  _343
REMARK  147  A    between atoms: _343  and  _344
REMARK  148  A    between atoms: _348  and  _349
REMARK  149  A    between atoms: _354  and  _356
REMARK  150  A    between atoms: _356  and  _357
REMARK  151  A    between atoms: _356  and  _359
REMARK  152  A    between atoms: _359  and  _360
REMARK  153  A    between atoms: _362  and  _364
REMARK  154  A    between atoms: _364  and  _365
REMARK  155  A    between atoms: _364  and  _367
REMARK  156  A    between atoms: _370  and  _372
REMARK  157  A    between atoms: _372  and  _373
REMARK  158  A    between atoms: _372  and  _375
REMARK  159  A    between atoms: _375  and  _376
REMARK  160  A    between atoms: _379  and  _381
REMARK  161  A    between atoms: _381  and  _382
REMARK  162  A    between atoms: _381  and  _384
REMARK  163  A    between atoms: _384  and  _385
REMARK  164  A    between atoms: _390  and  _392
REMARK  165  A    between atoms: _392  and  _393
REMARK  166  A    between atoms: _392  and  _395
REMARK  167  A    between atoms: _395  and  _396
REMARK  168  A    between atoms: _399  and  _401
REMARK  169  A    between atoms: _401  and  _402
REMARK  170  A    between atoms: _401  and  _404
REMARK  171  A    between atoms: _404  and  _405
REMARK  172  A    between atoms: _405  and  _406
REMARK  173  A    between atoms: _409  and  _411
REMARK  174  A    between atoms: _411  and  _412
REMARK  175  A    between atoms: _411  and  _414
REMARK  176  A    between atoms: _414  and  _415
REMARK  177  A    between atoms: _415  and  _416
REMARK  178  A    between atoms: _421  and  _423
REMARK  179  A    between atoms: _423  and  _424
REMARK  180  A    between atoms: _423  and  _426
REMARK  181  A    between atoms: _426  and  _427
REMARK  182  A    between atoms: _430  and  _432
REMARK  183  A    between atoms: _432  and  _433
REMARK  184  A    between atoms: _432  and  _435
REMARK  185  A    between atoms: _435  and  _436
REMARK  186  A    between atoms: _441  and  _442
REMARK  187  A    between atoms: _444  and  _446
REMARK  188  A    between atoms: _446  and  _447
REMARK  189  A    between atoms: _446  and  _449
REMARK  190  A    between atoms: _449  and  _450
REMARK  191  A    between atoms: _453  and  _455
REMARK  192  A    between atoms: _455  and  _456
REMARK  193  A    between atoms: _455  and  _458
REMARK  194  A    between atoms: _461  and  _463
REMARK  195  A    between atoms: _463  and  _464
REMARK  196  A    between atoms: _463  and  _466
REMARK  197  A    between atoms: _466  and  _467
REMARK  198  A    between atoms: _471  and  _472
REMARK  199  A    between atoms: _477  and  _479
REMARK  200  A    between atoms: _479  and  _480
REMARK  201  A    between atoms: _479  and  _482
REMARK  202  A    between atoms: _485  and  _487
REMARK  203  A    between atoms: _487  and  _488
REMARK  204  A    between atoms: _487  and  _490
REMARK  205  A    between atoms: _490  and  _491
REMARK  206  A    between atoms: _494  and  _496
REMARK  207  A    between atoms: _496  and  _497
REMARK  208  A    between atoms: _496  and  _499
REMARK  209  A    between atoms: _499  and  _500
REMARK  210  A    between atoms: _503  and  _505
REMARK  211  A    between atoms: _505  and  _506
REMARK  212  A    between atoms: _505  and  _508
REMARK  213  A    between atoms: _508  and  _509
REMARK  214  A    between atoms: _512  and  _514
REMARK  215  A    between atoms: _514  and  _515
REMARK  216  A    between atoms: _514  and  _517
REMARK  217  A    between atoms: _517  and  _518
REMARK  218  A    between atoms: _523  and  _525
REMARK  219  A    between atoms: _525  and  _526
REMARK  220  A    between atoms: _525  and  _528
REMARK  221  A    between atoms: _530  and  _532
REMARK  222  A    between atoms: _532  and  _533
REMARK  223  A    between atoms: _532  and  _535
REMARK  224  A    between atoms: _535  and  _536
REMARK  225  A    between atoms: _542  and  _544
REMARK  226  A    between atoms: _544  and  _545
REMARK  227  A    between atoms: _544  and  _547
REMARK  228  A    between atoms: _550  and  _552
REMARK  229  A    between atoms: _552  and  _553
REMARK  230  A    between atoms: _552  and  _555
REMARK  231  A    between atoms: _555  and  _556
REMARK  232  A    between atoms: _559  and  _561
REMARK  233  A    between atoms: _561  and  _562
REMARK  234  A    between atoms: _561  and  _564
REMARK  235  A    between atoms: _567  and  _569
REMARK  236  A    between atoms: _569  and  _570
REMARK  237  A    between atoms: _569  and  _572
REMARK  238  A    between atoms: _572  and  _573
REMARK  239  A    between atoms: _578  and  _579
REMARK  240  A    between atoms: _581  and  _583
REMARK  241  A    between atoms: _583  and  _584
REMARK                            x       y       z     vdW  Elec       q    Type
REMARK                         _______ _______ _______ _____ _____    ______ ____
ROOT
ATOM      1  CA  LEU A   1      21.654  20.006  26.379  0.00  0.00    +0.133 C 
ENDROOT
BRANCH   1   2
ATOM      2  N   LEU A   1      21.523  19.976  27.828  0.00  0.00    -0.239 NA
ATOM      3  H   LEU A   1      21.847  20.792  28.386  0.00  0.00    +0.142 HD
ENDBRANCH   1   2
BRANCH   1   4
ATOM      4  C   LEU A   1      22.325  18.711  25.930  0.00  0.00    +0.224 C 
ATOM      5  O   LEU A   1      23.511  18.484  26.183  0.00  0.00    -0.287 OA
ENDBRANCH   1   4
BRANCH   1   6
ATOM      6  CB  LEU A   1      22.471  21.229  25.956  0.00  0.00    +0.025 C 
BRANCH   6   7
ATOM      7  CG  LEU A   1      21.657  22.438  25.472  0.00  0.00    +0.002 C 
ATOM      8  CD2 LEU A   1      20.339  22.526  26.216  0.00  0.00    +0.000 C 
ATOM      9  CD1 LEU A   1      22.468  23.707  25.658  0.00  0.00    +0.000 C 
ENDBRANCH   6   7
ENDBRANCH   1   6
TORSDOF 4
REMARK  Name = ../refined-set-2016/3e3c/3e3c_pocket.pdb
REMARK  241 active torsions:
REMARK  status: ('A' for Active; 'I' for Inactive)
REMARK    1  A    between atoms: _1  and  _3
REMARK    2  A    between atoms: _3  and  _4
REMARK    3  A    between atoms: _3  and  _6
REMARK    4  A    between atoms: _6  and  _7
REMARK    5  A    between atoms: _9  and  _11
REMARK    6  A    between atoms: _11  and  _12
REMARK    7  A    between atoms: _11  and  _14
REMARK    8  A    between atoms: _14  and  _15
REMARK    9  A    between atoms: _15  and  _16
REMARK   10  A    between atoms: _18  and  _20
REMARK   11  A    between atoms: _20  and  _21
REMARK   12  A    between atoms: _20  and  _23
REMARK   13  A    between atoms: _23  and  _24
REMARK   14  A    between atoms: _27  and  _29
REMARK   15  A    between atoms: _29  and  _30
REMARK   16  A    between atoms: _29  and  _32
REMARK   17  A    between atoms: _32  and  _33
REMARK   18  A    between atoms: _36  and  _38
REMARK   19  A    between atoms: _38  and  _39
REMARK   20  A    between atoms: _38  and  _41
REMARK   21  A    between atoms: _41  and  _42
REMARK   22  A    between atoms: _48  and  _50
REMARK   23  A    between atoms: _50  and  _51
REMARK   24  A    between atoms: _50  and  _53
REMARK   25  A    between atoms: _53  and  _54
REMARK   26  A    between atoms: _57  and  _59
REMARK   27  A    between atoms: _59  and  _60
REMARK   28  A    between atoms: _59  and  _62
REMARK   29  A    between atoms: _62  and  _63
REMARK   30  A    between atoms: _65  and  _67
REMARK   31  A    between atoms: _67  and  _68
REMARK   32  A    between atoms: _67  and  _70
REMARK   33  A    between atoms: _70  and  _71
REMARK   34  A    between atoms: _73  and  _75
REMARK   35  A    between atoms: _75  and  _76
REMARK   36  A    between atoms: _75  and  _78
REMARK   37  A    between atoms: _80  and  _82
REMARK   38  A    between atoms: _82  and  _83
REMARK   39  A    between atoms: _85  and  _87
REMARK   40  A    between atoms: _87  and  _88
REMARK   41  A    between atoms: _87  and  _90
REMARK   42  A    between atoms: _90  and  _91
REMARK   43  A    between atoms: _91  and  _92
REMARK   44  A    between atoms: _95  and  _97
REMARK   45  A    between atoms: _97  and  _98
REMARK   46  A    between atoms: _100  and  _102
REMARK   47  A    between atoms: _102  and  _103
REMARK   48  A    between atoms: _102  and  _105
REMARK   49  A    between atoms: _105  and  _106
REMARK   50  A    between atoms: _109  and  _111
REMARK   51  A    between atoms: _111  and  _112
REMARK   52  A    between atoms: _111  and  _114
REMARK   53  A    between atoms: _114  and  _115
REMARK   54  A    between atoms: _118  and  _120
REMARK   55  A    between atoms: _120  and  _121
REMARK   56  A    between atoms: _120  and  _123
REMARK   57  A    between atoms: _123  and  _124
REMARK   58  A    between atoms: _127  and  _129
REMARK   59  A    between atoms: _129  and  _130
REMARK   60  A    between atoms: _129  and  _132
REMARK   61  A    between atoms: _132  and  _133
REMARK   62  A    between atoms: _133  and  _134
REMARK   63  A    between atoms: _134  and  _135
REMARK   64  A    between atoms: _135  and  _136
REMARK   65  A    between atoms: _140  and  _142
REMARK   66  A    between atoms: _142  and  _143
REMARK   67  A    between atoms: _142  and  _145
REMARK   68  A    between atoms: _145  and  _146
REMARK   69  A    between atoms: _149  and  _151
REMARK   70  A    between atoms: _151  and  _152
REMARK   71  A    between atoms: _151  and  _154
REMARK   72  A    between atoms: _154  and  _155
REMARK   73  A    between atoms: _158  and  _160
REMARK   74  A    between atoms: _160  and  _161
REMARK   75  A    between atoms: _163  and  _165
REMARK   76  A    between atoms: _165  and  _166
REMARK   77  A    between atoms: _168  and  _170
REMARK   78  A    between atoms: _170  and  _171
REMARK   79  A    between atoms: _170  and  _173
REMARK   80  A    between atoms: _173  and  _174
REMARK   81  A    between atoms: _177  and  _179
REMARK   82  A    between atoms: _179  and  _180
REMARK   83  A    between atoms: _179  and  _182
REMARK   84  A    between atoms: _182  and  _183
REMARK   85  A    between atoms: _186  and  _188
REMARK   86  A    between atoms: _188  and  _189
REMARK   87  A    between atoms: _192  and  _194
REMARK   88  A    between atoms: _194  and  _195
REMARK   89  A    between atoms: _194  and  _197
REMARK   90  A    between atoms: _197  and  _198
REMARK   91  A    between atoms: _200  and  _202
REMARK   92  A    between atoms: _202  and  _203
REMARK   93  A    between atoms: _202  and  _205
REMARK   94  A    between atoms: _208  and  _210
REMARK   95  A    between atoms: _210  and  _211
REMARK   96  A    between atoms: _210  and  _213
REMARK   97  A    between atoms: _213  and  _214
REMARK   98  A    between atoms: _219  and  _220
REMARK   99  A    between atoms: _222  and  _224
REMARK  100  A    between atoms: _224  and  _225
REMARK  101  A    between atoms: _224  and  _227
REMARK  102  A    between atoms: _227  and  _228
REMARK  103  A    between atoms: _228  and  _229
REMARK  104  A    between atoms: _234  and  _236
REMARK  105  A    between atoms: _236  and  _237
REMARK  106  A    between atoms: _239  and  _241
REMARK  107  A    between atoms: _241  and  _242
REMARK  108  A    between atoms: _241  and  _244
REMARK  109  A    between atoms: _244  and  _245
REMARK  110  A    between atoms: _248  and  _250
REMARK  111  A    between atoms: _250  and  _251
REMARK  112  A    between atoms: _250  and  _253
REMARK  113  A    between atoms: _253  and  _254
REMARK  114  A    between atoms: _257  and  _259
REMARK  115  A    between atoms: _259  and  _260
REMARK  116  A    between atoms: _259  and  _262
REMARK  117  A    between atoms: _262  and  _263
REMARK  118  A    between atoms: _266  and  _268
REMARK  119  A    between atoms: _268  and  _269
REMARK  120  A    between atoms: _268  and  _271
REMARK  121  A    between atoms: _271  and  _272
REMARK  122  A    between atoms: _277  and  _279
REMARK  123  A    between atoms: _279  and  _280
REMARK  124  A    between atoms: _279  and  _282
REMARK  125  A    between atoms: _285  and  _287
REMARK  126  A    between atoms: _287  and  _288
REMARK  127  A    between atoms: _287  and  _290
REMARK  128  A    between atoms: _290  and  _291
REMARK  129  A    between atoms: _296  and  _298
REMARK  130  A    between atoms: _298  and  _299
REMARK  131  A    between atoms: _298  and  _301
REMARK  132  A    between atoms: _301  and  _302
REMARK  133  A    between atoms: _302  and  _303
REMARK  134  A    between atoms: _303  and  _304
REMARK  135  A    between atoms: _313  and  _315
REMARK  136  A    between atoms: _315  and  _316
REMARK  137  A    between atoms: _315  and  _318
REMARK  138  A    between atoms: _318  and  _319
REMARK  139  A    between atoms: _324  and  _325
REMARK  140  A    between atoms: _327  and  _329
REMARK  141  A    between atoms: _329  and  _330
REMARK  142  A    between atoms: _329  and  _332
REMARK  143  A    between atoms: _332  and  _333
REMARK  144  A    between atoms: _338  and  _340
REMARK  145  A    between atoms: _340  and  _341
REMARK  146  A    between atoms: _340  and  _343
REMARK  147  A    between atoms: _343  and  _344
REMARK  148  A    between atoms: _348  and  _349
REMARK  149  A    between atoms: _354  and  _356
REMARK  150  A    between atoms: _356  and  _357
REMARK  151  A    between atoms: _356  and  _359
REMARK  152  A    between atoms: _359  and  _360
REMARK  153  A    between atoms: _362  and  _364
REMARK  154  A    between atoms: _364  and  _365
REMARK  155  A    between atoms: _364  and  _367
REMARK  156  A    between atoms: _370  and  _372
REMARK  157  A    between atoms: _372  and  _373
REMARK  158  A    between atoms: _372  and  _375
REMARK  159  A    between atoms: _375  and  _376
REMARK  160  A    between atoms: _379  and  _381
REMARK  161  A    between atoms: _381  and  _382
REMARK  162  A    between atoms: _381  and  _384
REMARK  163  A    between atoms: _384  and  _385
REMARK  164  A    between atoms: _390  and  _392
REMARK  165  A    between atoms: _392  and  _393
REMARK  166  A    between atoms: _392  and  _395
REMARK  167  A    between atoms: _395  and  _396
REMARK  168  A    between atoms: _399  and  _401
REMARK  169  A    between atoms: _401  and  _402
REMARK  170  A    between atoms: _401  and  _404
REMARK  171  A    between atoms: _404  and  _405
REMARK  172  A    between atoms: _405  and  _406
REMARK  173  A    between atoms: _409  and  _411
REMARK  174  A    between atoms: _411  and  _412
REMARK  175  A    between atoms: _411  and  _414
REMARK  176  A    between atoms: _414  and  _415
REMARK  177  A    between atoms: _415  and  _416
REMARK  178  A    between atoms: _421  and  _423
REMARK  179  A    between atoms: _423  and  _424
REMARK  180  A    between atoms: _423  and  _426
REMARK  181  A    between atoms: _426  and  _427
REMARK  182  A    between atoms: _430  and  _432
REMARK  183  A    between atoms: _432  and  _433
REMARK  184  A    between atoms: _432  and  _435
REMARK  185  A    between atoms: _435  and  _436
REMARK  186  A    between atoms: _441  and  _442
REMARK  187  A    between atoms: _444  and  _446
REMARK  188  A    between atoms: _446  and  _447
REMARK  189  A    between atoms: _446  and  _449
REMARK  190  A    between atoms: _449  and  _450
REMARK  191  A    between atoms: _453  and  _455
REMARK  192  A    between atoms: _455  and  _456
REMARK  193  A    between atoms: _455  and  _458
REMARK  194  A    between atoms: _461  and  _463
REMARK  195  A    between atoms: _463  and  _464
REMARK  196  A    between atoms: _463  and  _466
REMARK  197  A    between atoms: _466  and  _467
REMARK  198  A    between atoms: _471  and  _472
REMARK  199  A    between atoms: _477  and  _479
REMARK  200  A    between atoms: _479  and  _480
REMARK  201  A    between atoms: _479  and  _482
REMARK  202  A    between atoms: _485  and  _487
REMARK  203  A    between atoms: _487  and  _488
REMARK  204  A    between atoms: _487  and  _490
REMARK  205  A    between atoms: _490  and  _491
REMARK  206  A    between atoms: _494  and  _496
REMARK  207  A    between atoms: _496  and  _497
REMARK  208  A    between atoms: _496  and  _499
REMARK  209  A    between atoms: _499  and  _500
REMARK  210  A    between atoms: _503  and  _505
REMARK  211  A    between atoms: _505  and  _506
REMARK  212  A    between atoms: _505  and  _508
REMARK  213  A    between atoms: _508  and  _509
REMARK  214  A    between atoms: _512  and  _514
REMARK  215  A    between atoms: _514  and  _515
REMARK  216  A    between atoms: _514  and  _517
REMARK  217  A    between atoms: _517  and  _518
REMARK  218  A    between atoms: _523  and  _525
REMARK  219  A    between atoms: _525  and  _526
REMARK  220  A    between atoms: _525  and  _528
REMARK  221  A    between atoms: _530  and  _532
REMARK  222  A    between atoms: _532  and  _533
REMARK  223  A    between atoms: _532  and  _535
REMARK  224  A    between atoms: _535  and  _536
REMARK  225  A    between atoms: _542  and  _544
REMARK  226  A    between atoms: _544  and  _545
REMARK  227  A    between atoms: _544  and  _547
REMARK  228  A    between atoms: _550  and  _552
REMARK  229  A    between atoms: _552  and  _553
REMARK  230  A    between atoms: _552  and  _555
REMARK  231  A    between atoms: _555  and  _556
REMARK  232  A    between atoms: _559  and  _561
REMARK  233  A    between atoms: _561  and  _562
REMARK  234  A    between atoms: _561  and  _564
REMARK  235  A    between atoms: _567  and  _569
REMARK  236  A    between atoms: _569  and  _570
REMARK  237  A    between atoms: _569  and  _572
REMARK  238  A    between atoms: _572  and  _573
REMARK  239  A    between atoms: _578  and  _579
REMARK  240  A    between atoms: _581  and  _583
REMARK  241  A    between atoms: _583  and  _584
REMARK                            x       y       z     vdW  Elec       q    Type
REMARK                         _______ _______ _______ _____ _____    ______ ____
ROOT
ATOM      1  CA  ILE A   1      17.122  16.795  25.010  0.00  0.00    +0.133 C 
ENDROOT
BRANCH   1   2
ATOM      2  N   ILE A   1      17.092  15.843  23.907  0.00  0.00    -0.239 NA
ATOM      3  H   ILE A   1      17.037  16.196  22.930  0.00  0.00    +0.142 HD
ENDBRANCH   1   2
BRANCH   1   4
ATOM      4  C   ILE A   1      15.824  16.769  25.809  0.00  0.00    +0.224 C 
ATOM      5  O   ILE A   1      14.793  17.267  25.351  0.00  0.00    -0.287 OA
ENDBRANCH   1   4
BRANCH   1   6
ATOM      6  CB  ILE A   1      17.362  18.232  24.500  0.00  0.00    +0.023 C 
ATOM      7  CG2 ILE A   1      17.457  19.193  25.684  0.00  0.00    +0.002 C 
BRANCH   6   8
ATOM      8  CG1 ILE A   1      18.647  18.276  23.668  0.00  0.00    +0.002 C 
ATOM      9  CD1 ILE A   1      18.961  19.632  23.073  0.00  0.00    +0.000 C 
ENDBRANCH   6   8
ENDBRANCH   1   6
TORSDOF 4
REMARK  Name = ../refined-set-2016/3e3c/3e3c_pocket.pdb
REMARK  241 active torsions:
REMARK  status: ('A' for Active; 'I' for Inactive)
REMARK    1  A    between atoms: _1  and  _3
REMARK    2  A    between atoms: _3  and  _4
REMARK    3  A    between atoms: _3  and  _6
REMARK    4  A    between atoms: _6  and  _7
REMARK    5  A    between atoms: _9  and  _11
REMARK    6  A    between atoms: _11  and  _12
REMARK    7  A    between atoms: _11  and  _14
REMARK    8  A    between atoms: _14  and  _15
REMARK    9  A    between atoms: _15  and  _16
REMARK   10  A    between atoms: _18  and  _20
REMARK   11  A    between atoms: _20  and  _21
REMARK   12  A    between atoms: _20  and  _23
REMARK   13  A    between atoms: _23  and  _24
REMARK   14  A    between atoms: _27  and  _29
REMARK   15  A    between atoms: _29  and  _30
REMARK   16  A    between atoms: _29  and  _32
REMARK   17  A    between atoms: _32  and  _33
REMARK   18  A    between atoms: _36  and  _38
REMARK   19  A    between atoms: _38  and  _39
REMARK   20  A    between atoms: _38  and  _41
REMARK   21  A    between atoms: _41  and  _42
REMARK   22  A    between atoms: _48  and  _50
REMARK   23  A    between atoms: _50  and  _51
REMARK   24  A    between atoms: _50  and  _53
REMARK   25  A    between atoms: _53  and  _54
REMARK   26  A    between atoms: _57  and  _59
REMARK   27  A    between atoms: _59  and  _60
REMARK   28  A    between atoms: _59  and  _62
REMARK   29  A    between atoms: _62  and  _63
REMARK   30  A    between atoms: _65  and  _67
REMARK   31  A    between atoms: _67  and  _68
REMARK   32  A    between atoms: _67  and  _70
REMARK   33  A    between atoms: _70  and  _71
REMARK   34  A    between atoms: _73  and  _75
REMARK   35  A    between atoms: _75  and  _76
REMARK   36  A    between atoms: _75  and  _78
REMARK   37  A    between atoms: _80  and  _82
REMARK   38  A    between atoms: _82  and  _83
REMARK   39  A    between atoms: _85  and  _87
REMARK   40  A    between atoms: _87  and  _88
REMARK   41  A    between atoms: _87  and  _90
REMARK   42  A    between atoms: _90  and  _91
REMARK   43  A    between atoms: _91  and  _92
REMARK   44  A    between atoms: _95  and  _97
REMARK   45  A    between atoms: _97  and  _98
REMARK   46  A    between atoms: _100  and  _102
REMARK   47  A    between atoms: _102  and  _103
REMARK   48  A    between atoms: _102  and  _105
REMARK   49  A    between atoms: _105  and  _106
REMARK   50  A    between atoms: _109  and  _111
REMARK   51  A    between atoms: _111  and  _112
REMARK   52  A    between atoms: _111  and  _114
REMARK   53  A    between atoms: _114  and  _115
REMARK   54  A    between atoms: _118  and  _120
REMARK   55  A    between atoms: _120  and  _121
REMARK   56  A    between atoms: _120  and  _123
REMARK   57  A    between atoms: _123  and  _124
REMARK   58  A    between atoms: _127  and  _129
REMARK   59  A    between atoms: _129  and  _130
REMARK   60  A    between atoms: _129  and  _132
REMARK   61  A    between atoms: _132  and  _133
REMARK   62  A    between atoms: _133  and  _134
REMARK   63  A    between atoms: _134  and  _135
REMARK   64  A    between atoms: _135  and  _136
REMARK   65  A    between atoms: _140  and  _142
REMARK   66  A    between atoms: _142  and  _143
REMARK   67  A    between atoms: _142  and  _145
REMARK   68  A    between atoms: _145  and  _146
REMARK   69  A    between atoms: _149  and  _151
REMARK   70  A    between atoms: _151  and  _152
REMARK   71  A    between atoms: _151  and  _154
REMARK   72  A    between atoms: _154  and  _155
REMARK   73  A    between atoms: _158  and  _160
REMARK   74  A    between atoms: _160  and  _161
REMARK   75  A    between atoms: _163  and  _165
REMARK   76  A    between atoms: _165  and  _166
REMARK   77  A    between atoms: _168  and  _170
REMARK   78  A    between atoms: _170  and  _171
REMARK   79  A    between atoms: _170  and  _173
REMARK   80  A    between atoms: _173  and  _174
REMARK   81  A    between atoms: _177  and  _179
REMARK   82  A    between atoms: _179  and  _180
REMARK   83  A    between atoms: _179  and  _182
REMARK   84  A    between atoms: _182  and  _183
REMARK   85  A    between atoms: _186  and  _188
REMARK   86  A    between atoms: _188  and  _189
REMARK   87  A    between atoms: _192  and  _194
REMARK   88  A    between atoms: _194  and  _195
REMARK   89  A    between atoms: _194  and  _197
REMARK   90  A    between atoms: _197  and  _198
REMARK   91  A    between atoms: _200  and  _202
REMARK   92  A    between atoms: _202  and  _203
REMARK   93  A    between atoms: _202  and  _205
REMARK   94  A    between atoms: _208  and  _210
REMARK   95  A    between atoms: _210  and  _211
REMARK   96  A    between atoms: _210  and  _213
REMARK   97  A    between atoms: _213  and  _214
REMARK   98  A    between atoms: _219  and  _220
REMARK   99  A    between atoms: _222  and  _224
REMARK  100  A    between atoms: _224  and  _225
REMARK  101  A    between atoms: _224  and  _227
REMARK  102  A    between atoms: _227  and  _228
REMARK  103  A    between atoms: _228  and  _229
REMARK  104  A    between atoms: _234  and  _236
REMARK  105  A    between atoms: _236  and  _237
REMARK  106  A    between atoms: _239  and  _241
REMARK  107  A    between atoms: _241  and  _242
REMARK  108  A    between atoms: _241  and  _244
REMARK  109  A    between atoms: _244  and  _245
REMARK  110  A    between atoms: _248  and  _250
REMARK  111  A    between atoms: _250  and  _251
REMARK  112  A    between atoms: _250  and  _253
REMARK  113  A    between atoms: _253  and  _254
REMARK  114  A    between atoms: _257  and  _259
REMARK  115  A    between atoms: _259  and  _260
REMARK  116  A    between atoms: _259  and  _262
REMARK  117  A    between atoms: _262  and  _263
REMARK  118  A    between atoms: _266  and  _268
REMARK  119  A    between atoms: _268  and  _269
REMARK  120  A    between atoms: _268  and  _271
REMARK  121  A    between atoms: _271  and  _272
REMARK  122  A    between atoms: _277  and  _279
REMARK  123  A    between atoms: _279  and  _280
REMARK  124  A    between atoms: _279  and  _282
REMARK  125  A    between atoms: _285  and  _287
REMARK  126  A    between atoms: _287  and  _288
REMARK  127  A    between atoms: _287  and  _290
REMARK  128  A    between atoms: _290  and  _291
REMARK  129  A    between atoms: _296  and  _298
REMARK  130  A    between atoms: _298  and  _299
REMARK  131  A    between atoms: _298  and  _301
REMARK  132  A    between atoms: _301  and  _302
REMARK  133  A    between atoms: _302  and  _303
REMARK  134  A    between atoms: _303  and  _304
REMARK  135  A    between atoms: _313  and  _315
REMARK  136  A    between atoms: _315  and  _316
REMARK  137  A    between atoms: _315  and  _318
REMARK  138  A    between atoms: _318  and  _319
REMARK  139  A    between atoms: _324  and  _325
REMARK  140  A    between atoms: _327  and  _329
REMARK  141  A    between atoms: _329  and  _330
REMARK  142  A    between atoms: _329  and  _332
REMARK  143  A    between atoms: _332  and  _333
REMARK  144  A    between atoms: _338  and  _340
REMARK  145  A    between atoms: _340  and  _341
REMARK  146  A    between atoms: _340  and  _343
REMARK  147  A    between atoms: _343  and  _344
REMARK  148  A    between atoms: _348  and  _349
REMARK  149  A    between atoms: _354  and  _356
REMARK  150  A    between atoms: _356  and  _357
REMARK  151  A    between atoms: _356  and  _359
REMARK  152  A    between atoms: _359  and  _360
REMARK  153  A    between atoms: _362  and  _364
REMARK  154  A    between atoms: _364  and  _365
REMARK  155  A    between atoms: _364  and  _367
REMARK  156  A    between atoms: _370  and  _372
REMARK  157  A    between atoms: _372  and  _373
REMARK  158  A    between atoms: _372  and  _375
REMARK  159  A    between atoms: _375  and  _376
REMARK  160  A    between atoms: _379  and  _381
REMARK  161  A    between atoms: _381  and  _382
REMARK  162  A    between atoms: _381  and  _384
REMARK  163  A    between atoms: _384  and  _385
REMARK  164  A    between atoms: _390  and  _392
REMARK  165  A    between atoms: _392  and  _393
REMARK  166  A    between atoms: _392  and  _395
REMARK  167  A    between atoms: _395  and  _396
REMARK  168  A    between atoms: _399  and  _401
REMARK  169  A    between atoms: _401  and  _402
REMARK  170  A    between atoms: _401  and  _404
REMARK  171  A    between atoms: _404  and  _405
REMARK  172  A    between atoms: _405  and  _406
REMARK  173  A    between atoms: _409  and  _411
REMARK  174  A    between atoms: _411  and  _412
REMARK  175  A    between atoms: _411  and  _414
REMARK  176  A    between atoms: _414  and  _415
REMARK  177  A    between atoms: _415  and  _416
REMARK  178  A    between atoms: _421  and  _423
REMARK  179  A    between atoms: _423  and  _424
REMARK  180  A    between atoms: _423  and  _426
REMARK  181  A    between atoms: _426  and  _427
REMARK  182  A    between atoms: _430  and  _432
REMARK  183  A    between atoms: _432  and  _433
REMARK  184  A    between atoms: _432  and  _435
REMARK  185  A    between atoms: _435  and  _436
REMARK  186  A    between atoms: _441  and  _442
REMARK  187  A    between atoms: _444  and  _446
REMARK  188  A    between atoms: _446  and  _447
REMARK  189  A    between atoms: _446  and  _449
REMARK  190  A    between atoms: _449  and  _450
REMARK  191  A    between atoms: _453  and  _455
REMARK  192  A    between atoms: _455  and  _456
REMARK  193  A    between atoms: _455  and  _458
REMARK  194  A    between atoms: _461  and  _463
REMARK  195  A    between atoms: _463  and  _464
REMARK  196  A    between atoms: _463  and  _466
REMARK  197  A    between atoms: _466  and  _467
REMARK  198  A    between atoms: _471  and  _472
REMARK  199  A    between atoms: _477  and  _479
REMARK  200  A    between atoms: _479  and  _480
REMARK  201  A    between atoms: _479  and  _482
REMARK  202  A    between atoms: _485  and  _487
REMARK  203  A    between atoms: _487  and  _488
REMARK  204  A    between atoms: _487  and  _490
REMARK  205  A    between atoms: _490  and  _491
REMARK  206  A    between atoms: _494  and  _496
REMARK  207  A    between atoms: _496  and  _497
REMARK  208  A    between atoms: _496  and  _499
REMARK  209  A    between atoms: _499  and  _500
REMARK  210  A    between atoms: _503  and  _505
REMARK  211  A    between atoms: _505  and  _506
REMARK  212  A    between atoms: _505  and  _508
REMARK  213  A    between atoms: _508  and  _509
REMARK  214  A    between atoms: _512  and  _514
REMARK  215  A    between atoms: _514  and  _515
REMARK  216  A    between atoms: _514  and  _517
REMARK  217  A    between atoms: _517  and  _518
REMARK  218  A    between atoms: _523  and  _525
REMARK  219  A    between atoms: _525  and  _526
REMARK  220  A    between atoms: _525  and  _528
REMARK  221  A    between atoms: _530  and  _532
REMARK  222  A    between atoms: _532  and  _533
REMARK  223  A    between atoms: _532  and  _535
REMARK  224  A    between atoms: _535  and  _536
REMARK  225  A    between atoms: _542  and  _544
REMARK  226  A    between atoms: _544  and  _545
REMARK  227  A    between atoms: _544  and  _547
REMARK  228  A    between atoms: _550  and  _552
REMARK  229  A    between atoms: _552  and  _553
REMARK  230  A    between atoms: _552  and  _555
REMARK  231  A    between atoms: _555  and  _556
REMARK  232  A    between atoms: _559  and  _561
REMARK  233  A    between atoms: _561  and  _562
REMARK  234  A    between atoms: _561  and  _564
REMARK  235  A    between atoms: _567  and  _569
REMARK  236  A    between atoms: _569  and  _570
REMARK  237  A    between atoms: _569  and  _572
REMARK  238  A    between atoms: _572  and  _573
REMARK  239  A    between atoms: _578  and  _579
REMARK  240  A    between atoms: _581  and  _583
REMARK  241  A    between atoms: _583  and  _584
REMARK                            x       y       z     vdW  Elec       q    Type
REMARK                         _______ _______ _______ _____ _____    ______ ____
ROOT
ATOM      1  C   HIS A   4       7.220  21.187  38.482  0.00  0.00    +0.241 C 
ATOM      2  O   HIS A   4       7.671  22.307  38.724  0.00  0.00    -0.273 OA
ATOM      3  N   ARG A   5       5.943  20.866  38.635  0.00  0.00    -0.297 N 
ATOM      4  H   ARG A   5       5.641  19.900  38.395  0.00  0.00    +0.150 HD
ENDROOT
BRANCH   3   5
ATOM      5  CA  ARG A   5       4.946  21.805  39.123  0.00  0.00    +0.149 C 
BRANCH   5   6
ATOM      6  C   ARG A   5       5.128  21.959  40.630  0.00  0.00    +0.241 C 
ATOM      7  O   ARG A   5       5.096  20.968  41.363  0.00  0.00    -0.273 OA
ATOM      8  N   TYR A   6       5.317  23.191  41.094  0.00  0.00    -0.297 N 
ATOM      9  H   TYR A   6       5.333  23.994  40.433  0.00  0.00    +0.150 HD
BRANCH   8  10
ATOM     10  CA  TYR A   6       5.502  23.427  42.521  0.00  0.00    +0.153 C 
BRANCH  10  11
ATOM     11  C   TYR A   6       4.391  24.280  43.121  0.00  0.00    +0.241 C 
ATOM     12  O   TYR A   6       4.413  24.586  44.311  0.00  0.00    -0.273 OA
ATOM     13  N   ASN A   7       3.419  24.660  42.299  0.00  0.00    -0.298 N 
ATOM     14  H   ASN A   7       3.451  24.365  41.302  0.00  0.00    +0.150 HD
BRANCH  13  15
ATOM     15  CA  ASN A   7       2.308  25.482  42.764  0.00  0.00    +0.146 C 
BRANCH  15  16
ATOM     16  C   ASN A   7       1.032  25.081  42.030  0.00  0.00    +0.227 C 
ATOM     17  O   ASN A   7       0.765  25.561  40.926  0.00  0.00    -0.286 OA
ENDBRANCH  15  16
BRANCH  15  18
ATOM     18  CB  ASN A   7       2.600  26.959  42.501  0.00  0.00    +0.112 C 
BRANCH  18  19
ATOM     19  CG  ASN A   7       1.615  27.882  43.193  0.00  0.00    +0.222 C 
ATOM     20  OD1 ASN A   7       0.485  27.495  43.487  0.00  0.00    -0.275 OA
ATOM     21  ND2 ASN A   7       2.038  29.117  43.444  0.00  0.00    -0.329 N 
ATOM     22 HD21 ASN A   7       1.404  29.800  43.907  0.00  0.00    +0.145 HD
ATOM     23 HD22 ASN A   7       3.002  29.401  43.178  0.00  0.00    +0.145 HD
ENDBRANCH  18  19
ENDBRANCH  15  18
ENDBRANCH  13  15
ENDBRANCH  10  11
BRANCH  10  24
ATOM     24  CB  TYR A   6       6.865  24.086  42.777  0.00  0.00    +0.055 C 
BRANCH  24  25
ATOM     25  CG  TYR A   6       6.956  25.553  42.394  0.00  0.00    -0.020 A 
ATOM     26  CD2 TYR A   6       6.462  26.553  43.239  0.00  0.00    -0.001 A 
ATOM     27  CE2 TYR A   6       6.556  27.900  42.892  0.00  0.00    +0.036 A 
ATOM     28  CZ  TYR A   6       7.144  28.258  41.688  0.00  0.00    +0.134 A 
ATOM     29  CE1 TYR A   6       7.637  27.285  40.835  0.00  0.00    +0.036 A 
ATOM     30  CD1 TYR A   6       7.543  25.942  41.190  0.00  0.00    -0.001 A 
BRANCH  28  31
ATOM     31  OH  TYR A   6       7.239  29.586  41.334  0.00  0.00    -0.506 OA
ATOM     32  HH  TYR A   6       6.751  29.736  40.486  0.00  0.00    +0.292 HD
ENDBRANCH  28  31
ENDBRANCH  24  25
ENDBRANCH  10  24
ENDBRANCH   8  10
ENDBRANCH   5   6
BRANCH   5  33
ATOM     33  CB  ARG A   5       3.555  21.251  38.829  0.00  0.00    +0.033 C 
BRANCH  33  34
ATOM     34  CG  ARG A   5       2.407  22.136  39.244  0.00  0.00    +0.045 C 
BRANCH  34  35
ATOM     35  CD  ARG A   5       2.251  23.323  38.317  0.00  0.00    +0.174 C 
BRANCH  35  36
ATOM     36  NE  ARG A   5       0.881  23.825  38.350  0.00  0.00    -0.265 N 
ATOM     37  HE  ARG A   5       0.723  24.794  38.693  0.00  0.00    +0.259 HD
ATOM     38  CZ  ARG A   5      -0.178  23.117  37.968  0.00  0.00    +0.342 C 
ATOM     39  NH2 ARG A   5      -1.395  23.641  38.042  0.00  0.00    -0.292 N 
ATOM     40 HH21 ARG A   5      -1.523  24.609  38.400  0.00  0.00    +0.255 HD
ATOM     41 HH22 ARG A   5      -2.220  23.084  37.742  0.00  0.00    +0.255 HD
ATOM     42  NH1 ARG A   5      -0.021  21.879  37.520  0.00  0.00    -0.292 N 
ATOM     43 HH11 ARG A   5       0.930  21.462  37.467  0.00  0.00    +0.255 HD
ATOM     44 HH12 ARG A   5      -0.849  21.325  37.221  0.00  0.00    +0.255 HD
ENDBRANCH  35  36
ENDBRANCH  34  35
ENDBRANCH  33  34
ENDBRANCH   5  33
ENDBRANCH   3   5
BRANCH   1  45
ATOM     45  CA  HIS A   4       8.114  20.067  37.978  0.00  0.00    +0.155 C 
BRANCH  45  47
ATOM     46  C   VAL A   3       8.494  19.626  35.624  0.00  0.00    +0.241 C 
ATOM     47  N   HIS A   4       8.703  20.393  36.691  0.00  0.00    -0.297 N 
ATOM     48  H   HIS A   4       9.299  21.241  36.602  0.00  0.00    +0.150 HD
ATOM     49  O   VAL A   3       7.821  18.595  35.663  0.00  0.00    -0.273 OA
BRANCH  46  50
ATOM     50  CA  VAL A   3       9.154  20.080  34.327  0.00  0.00    +0.149 C 
BRANCH  50  53
ATOM     51  C   HIS A   2      11.331  19.096  33.891  0.00  0.00    +0.241 C 
ATOM     52  O   HIS A   2      11.915  20.024  34.450  0.00  0.00    -0.273 OA
ATOM     53  N   VAL A   3      10.009  19.036  33.783  0.00  0.00    -0.297 N 
ATOM     54  H   VAL A   3       9.575  18.224  33.299  0.00  0.00    +0.150 HD
BRANCH  51  55
ATOM     55  CA  HIS A   2      12.105  17.940  33.275  0.00  0.00    +0.155 C 
BRANCH  55  57
ATOM     56  C   LEU A   1      12.459  18.624  30.959  0.00  0.00    +0.238 C 
ATOM     57  N   HIS A   2      12.950  18.371  32.168  0.00  0.00    -0.297 N 
ATOM     58  H   HIS A   2      13.971  18.484  32.330  0.00  0.00    +0.150 HD
ATOM     59  O   LEU A   1      11.265  18.515  30.688  0.00  0.00    -0.274 OA
BRANCH  56  60
ATOM     60  CA  LEU A   1      13.471  19.049  29.899  0.00  0.00    +0.145 C 
BRANCH  60  61
ATOM     61  N   LEU A   1      13.613  17.954  28.958  0.00  0.00    -0.238 NA
ATOM     62  H   LEU A   1      12.832  17.747  28.303  0.00  0.00    +0.142 HD
ENDBRANCH  60  61
BRANCH  60  63
ATOM     63  CB  LEU A   1      13.003  20.302  29.150  0.00  0.00    +0.026 C 
BRANCH  63  64
ATOM     64  CG  LEU A   1      13.083  21.676  29.822  0.00  0.00    +0.002 C 
ATOM     65  CD2 LEU A   1      12.008  21.781  30.866  0.00  0.00    +0.000 C 
ATOM     66  CD1 LEU A   1      14.458  21.890  30.426  0.00  0.00    +0.000 C 
ENDBRANCH  63  64
ENDBRANCH  60  63
ENDBRANCH  56  60
ENDBRANCH  55  57
BRANCH  55  67
ATOM     67  CB  HIS A   2      12.966  17.256  34.338  0.00  0.00    +0.076 C 
BRANCH  67  68
ATOM     68  CG  HIS A   2      13.612  15.989  33.865  0.00  0.00    +0.082 A 
ATOM     69  ND1 HIS A   2      12.943  14.784  33.820  0.00  0.00    -0.227 NA
ATOM     70  CE1 HIS A   2      13.746  13.854  33.334  0.00  0.00    +0.199 A 
ATOM     71  NE2 HIS A   2      14.912  14.413  33.061  0.00  0.00    -0.221 NA
ATOM     72  CD2 HIS A   2      14.855  15.747  33.383  0.00  0.00    +0.115 A 
ENDBRANCH  67  68
ENDBRANCH  55  67
ENDBRANCH  51  55
ENDBRANCH  50  53
BRANCH  50  73
ATOM     73  CB  VAL A   3       8.061  20.477  33.310  0.00  0.00    +0.027 C 
ATOM     74  CG2 VAL A   3       7.076  21.446  33.944  0.00  0.00    +0.002 C 
ATOM     75  CG1 VAL A   3       8.708  21.111  32.082  0.00  0.00    +0.002 C 
ENDBRANCH  50  73
ENDBRANCH  46  50
ENDBRANCH  45  47
BRANCH  45  76
ATOM     76  CB  HIS A   4       9.197  19.771  39.018  0.00  0.00    +0.076 C 
BRANCH  76  77
ATOM     77  CG  HIS A   4       8.668  19.649  40.414  0.00  0.00    +0.082 A 
ATOM     78  ND1 HIS A   4       8.326  20.744  41.178  0.00  0.00    -0.227 NA
ATOM     79  CE1 HIS A   4       7.848  20.336  42.339  0.00  0.00    +0.199 A 
ATOM     80  NE2 HIS A   4       7.868  19.017  42.358  0.00  0.00    -0.221 NA
ATOM     81  CD2 HIS A   4       8.378  18.562  41.166  0.00  0.00    +0.115 A 
ENDBRANCH  76  77
ENDBRANCH  45  76
ENDBRANCH   1  45
TORSDOF 30
REMARK  Name = ../refined-set-2016/3e3c/3e3c_pocket.pdb
REMARK  241 active torsions:
REMARK  status: ('A' for Active; 'I' for Inactive)
REMARK    1  A    between atoms: _1  and  _3
REMARK    2  A    between atoms: _3  and  _4
REMARK    3  A    between atoms: _3  and  _6
REMARK    4  A    between atoms: _6  and  _7
REMARK    5  A    between atoms: _9  and  _11
REMARK    6  A    between atoms: _11  and  _12
REMARK    7  A    between atoms: _11  and  _14
REMARK    8  A    between atoms: _14  and  _15
REMARK    9  A    between atoms: _15  and  _16
REMARK   10  A    between atoms: _18  and  _20
REMARK   11  A    between atoms: _20  and  _21
REMARK   12  A    between atoms: _20  and  _23
REMARK   13  A    between atoms: _23  and  _24
REMARK   14  A    between atoms: _27  and  _29
REMARK   15  A    between atoms: _29  and  _30
REMARK   16  A    between atoms: _29  and  _32
REMARK   17  A    between atoms: _32  and  _33
REMARK   18  A    between atoms: _36  and  _38
REMARK   19  A    between atoms: _38  and  _39
REMARK   20  A    between atoms: _38  and  _41
REMARK   21  A    between atoms: _41  and  _42
REMARK   22  A    between atoms: _48  and  _50
REMARK   23  A    between atoms: _50  and  _51
REMARK   24  A    between atoms: _50  and  _53
REMARK   25  A    between atoms: _53  and  _54
REMARK   26  A    between atoms: _57  and  _59
REMARK   27  A    between atoms: _59  and  _60
REMARK   28  A    between atoms: _59  and  _62
REMARK   29  A    between atoms: _62  and  _63
REMARK   30  A    between atoms: _65  and  _67
REMARK   31  A    between atoms: _67  and  _68
REMARK   32  A    between atoms: _67  and  _70
REMARK   33  A    between atoms: _70  and  _71
REMARK   34  A    between atoms: _73  and  _75
REMARK   35  A    between atoms: _75  and  _76
REMARK   36  A    between atoms: _75  and  _78
REMARK   37  A    between atoms: _80  and  _82
REMARK   38  A    between atoms: _82  and  _83
REMARK   39  A    between atoms: _85  and  _87
REMARK   40  A    between atoms: _87  and  _88
REMARK   41  A    between atoms: _87  and  _90
REMARK   42  A    between atoms: _90  and  _91
REMARK   43  A    between atoms: _91  and  _92
REMARK   44  A    between atoms: _95  and  _97
REMARK   45  A    between atoms: _97  and  _98
REMARK   46  A    between atoms: _100  and  _102
REMARK   47  A    between atoms: _102  and  _103
REMARK   48  A    between atoms: _102  and  _105
REMARK   49  A    between atoms: _105  and  _106
REMARK   50  A    between atoms: _109  and  _111
REMARK   51  A    between atoms: _111  and  _112
REMARK   52  A    between atoms: _111  and  _114
REMARK   53  A    between atoms: _114  and  _115
REMARK   54  A    between atoms: _118  and  _120
REMARK   55  A    between atoms: _120  and  _121
REMARK   56  A    between atoms: _120  and  _123
REMARK   57  A    between atoms: _123  and  _124
REMARK   58  A    between atoms: _127  and  _129
REMARK   59  A    between atoms: _129  and  _130
REMARK   60  A    between atoms: _129  and  _132
REMARK   61  A    between atoms: _132  and  _133
REMARK   62  A    between atoms: _133  and  _134
REMARK   63  A    between atoms: _134  and  _135
REMARK   64  A    between atoms: _135  and  _136
REMARK   65  A    between atoms: _140  and  _142
REMARK   66  A    between atoms: _142  and  _143
REMARK   67  A    between atoms: _142  and  _145
REMARK   68  A    between atoms: _145  and  _146
REMARK   69  A    between atoms: _149  and  _151
REMARK   70  A    between atoms: _151  and  _152
REMARK   71  A    between atoms: _151  and  _154
REMARK   72  A    between atoms: _154  and  _155
REMARK   73  A    between atoms: _158  and  _160
REMARK   74  A    between atoms: _160  and  _161
REMARK   75  A    between atoms: _163  and  _165
REMARK   76  A    between atoms: _165  and  _166
REMARK   77  A    between atoms: _168  and  _170
REMARK   78  A    between atoms: _170  and  _171
REMARK   79  A    between atoms: _170  and  _173
REMARK   80  A    between atoms: _173  and  _174
REMARK   81  A    between atoms: _177  and  _179
REMARK   82  A    between atoms: _179  and  _180
REMARK   83  A    between atoms: _179  and  _182
REMARK   84  A    between atoms: _182  and  _183
REMARK   85  A    between atoms: _186  and  _188
REMARK   86  A    between atoms: _188  and  _189
REMARK   87  A    between atoms: _192  and  _194
REMARK   88  A    between atoms: _194  and  _195
REMARK   89  A    between atoms: _194  and  _197
REMARK   90  A    between atoms: _197  and  _198
REMARK   91  A    between atoms: _200  and  _202
REMARK   92  A    between atoms: _202  and  _203
REMARK   93  A    between atoms: _202  and  _205
REMARK   94  A    between atoms: _208  and  _210
REMARK   95  A    between atoms: _210  and  _211
REMARK   96  A    between atoms: _210  and  _213
REMARK   97  A    between atoms: _213  and  _214
REMARK   98  A    between atoms: _219  and  _220
REMARK   99  A    between atoms: _222  and  _224
REMARK  100  A    between atoms: _224  and  _225
REMARK  101  A    between atoms: _224  and  _227
REMARK  102  A    between atoms: _227  and  _228
REMARK  103  A    between atoms: _228  and  _229
REMARK  104  A    between atoms: _234  and  _236
REMARK  105  A    between atoms: _236  and  _237
REMARK  106  A    between atoms: _239  and  _241
REMARK  107  A    between atoms: _241  and  _242
REMARK  108  A    between atoms: _241  and  _244
REMARK  109  A    between atoms: _244  and  _245
REMARK  110  A    between atoms: _248  and  _250
REMARK  111  A    between atoms: _250  and  _251
REMARK  112  A    between atoms: _250  and  _253
REMARK  113  A    between atoms: _253  and  _254
REMARK  114  A    between atoms: _257  and  _259
REMARK  115  A    between atoms: _259  and  _260
REMARK  116  A    between atoms: _259  and  _262
REMARK  117  A    between atoms: _262  and  _263
REMARK  118  A    between atoms: _266  and  _268
REMARK  119  A    between atoms: _268  and  _269
REMARK  120  A    between atoms: _268  and  _271
REMARK  121  A    between atoms: _271  and  _272
REMARK  122  A    between atoms: _277  and  _279
REMARK  123  A    between atoms: _279  and  _280
REMARK  124  A    between atoms: _279  and  _282
REMARK  125  A    between atoms: _285  and  _287
REMARK  126  A    between atoms: _287  and  _288
REMARK  127  A    between atoms: _287  and  _290
REMARK  128  A    between atoms: _290  and  _291
REMARK  129  A    between atoms: _296  and  _298
REMARK  130  A    between atoms: _298  and  _299
REMARK  131  A    between atoms: _298  and  _301
REMARK  132  A    between atoms: _301  and  _302
REMARK  133  A    between atoms: _302  and  _303
REMARK  134  A    between atoms: _303  and  _304
REMARK  135  A    between atoms: _313  and  _315
REMARK  136  A    between atoms: _315  and  _316
REMARK  137  A    between atoms: _315  and  _318
REMARK  138  A    between atoms: _318  and  _319
REMARK  139  A    between atoms: _324  and  _325
REMARK  140  A    between atoms: _327  and  _329
REMARK  141  A    between atoms: _329  and  _330
REMARK  142  A    between atoms: _329  and  _332
REMARK  143  A    between atoms: _332  and  _333
REMARK  144  A    between atoms: _338  and  _340
REMARK  145  A    between atoms: _340  and  _341
REMARK  146  A    between atoms: _340  and  _343
REMARK  147  A    between atoms: _343  and  _344
REMARK  148  A    between atoms: _348  and  _349
REMARK  149  A    between atoms: _354  and  _356
REMARK  150  A    between atoms: _356  and  _357
REMARK  151  A    between atoms: _356  and  _359
REMARK  152  A    between atoms: _359  and  _360
REMARK  153  A    between atoms: _362  and  _364
REMARK  154  A    between atoms: _364  and  _365
REMARK  155  A    between atoms: _364  and  _367
REMARK  156  A    between atoms: _370  and  _372
REMARK  157  A    between atoms: _372  and  _373
REMARK  158  A    between atoms: _372  and  _375
REMARK  159  A    between atoms: _375  and  _376
REMARK  160  A    between atoms: _379  and  _381
REMARK  161  A    between atoms: _381  and  _382
REMARK  162  A    between atoms: _381  and  _384
REMARK  163  A    between atoms: _384  and  _385
REMARK  164  A    between atoms: _390  and  _392
REMARK  165  A    between atoms: _392  and  _393
REMARK  166  A    between atoms: _392  and  _395
REMARK  167  A    between atoms: _395  and  _396
REMARK  168  A    between atoms: _399  and  _401
REMARK  169  A    between atoms: _401  and  _402
REMARK  170  A    between atoms: _401  and  _404
REMARK  171  A    between atoms: _404  and  _405
REMARK  172  A    between atoms: _405  and  _406
REMARK  173  A    between atoms: _409  and  _411
REMARK  174  A    between atoms: _411  and  _412
REMARK  175  A    between atoms: _411  and  _414
REMARK  176  A    between atoms: _414  and  _415
REMARK  177  A    between atoms: _415  and  _416
REMARK  178  A    between atoms: _421  and  _423
REMARK  179  A    between atoms: _423  and  _424
REMARK  180  A    between atoms: _423  and  _426
REMARK  181  A    between atoms: _426  and  _427
REMARK  182  A    between atoms: _430  and  _432
REMARK  183  A    between atoms: _432  and  _433
REMARK  184  A    between atoms: _432  and  _435
REMARK  185  A    between atoms: _435  and  _436
REMARK  186  A    between atoms: _441  and  _442
REMARK  187  A    between atoms: _444  and  _446
REMARK  188  A    between atoms: _446  and  _447
REMARK  189  A    between atoms: _446  and  _449
REMARK  190  A    between atoms: _449  and  _450
REMARK  191  A    between atoms: _453  and  _455
REMARK  192  A    between atoms: _455  and  _456
REMARK  193  A    between atoms: _455  and  _458
REMARK  194  A    between atoms: _461  and  _463
REMARK  195  A    between atoms: _463  and  _464
REMARK  196  A    between atoms: _463  and  _466
REMARK  197  A    between atoms: _466  and  _467
REMARK  198  A    between atoms: _471  and  _472
REMARK  199  A    between atoms: _477  and  _479
REMARK  200  A    between atoms: _479  and  _480
REMARK  201  A    between atoms: _479  and  _482
REMARK  202  A    between atoms: _485  and  _487
REMARK  203  A    between atoms: _487  and  _488
REMARK  204  A    between atoms: _487  and  _490
REMARK  205  A    between atoms: _490  and  _491
REMARK  206  A    between atoms: _494  and  _496
REMARK  207  A    between atoms: _496  and  _497
REMARK  208  A    between atoms: _496  and  _499
REMARK  209  A    between atoms: _499  and  _500
REMARK  210  A    between atoms: _503  and  _505
REMARK  211  A    between atoms: _505  and  _506
REMARK  212  A    between atoms: _505  and  _508
REMARK  213  A    between atoms: _508  and  _509
REMARK  214  A    between atoms: _512  and  _514
REMARK  215  A    between atoms: _514  and  _515
REMARK  216  A    between atoms: _514  and  _517
REMARK  217  A    between atoms: _517  and  _518
REMARK  218  A    between atoms: _523  and  _525
REMARK  219  A    between atoms: _525  and  _526
REMARK  220  A    between atoms: _525  and  _528
REMARK  221  A    between atoms: _530  and  _532
REMARK  222  A    between atoms: _532  and  _533
REMARK  223  A    between atoms: _532  and  _535
REMARK  224  A    between atoms: _535  and  _536
REMARK  225  A    between atoms: _542  and  _544
REMARK  226  A    between atoms: _544  and  _545
REMARK  227  A    between atoms: _544  and  _547
REMARK  228  A    between atoms: _550  and  _552
REMARK  229  A    between atoms: _552  and  _553
REMARK  230  A    between atoms: _552  and  _555
REMARK  231  A    between atoms: _555  and  _556
REMARK  232  A    between atoms: _559  and  _561
REMARK  233  A    between atoms: _561  and  _562
REMARK  234  A    between atoms: _561  and  _564
REMARK  235  A    between atoms: _567  and  _569
REMARK  236  A    between atoms: _569  and  _570
REMARK  237  A    between atoms: _569  and  _572
REMARK  238  A    between atoms: _572  and  _573
REMARK  239  A    between atoms: _578  and  _579
REMARK  240  A    between atoms: _581  and  _583
REMARK  241  A    between atoms: _583  and  _584
REMARK                            x       y       z     vdW  Elec       q    Type
REMARK                         _______ _______ _______ _____ _____    ______ ____
ROOT
ATOM      1  C   ASN A   6      -2.981  20.005  32.410  0.00  0.00    +0.241 C 
ATOM      2  N   ILE A   7      -1.726  19.694  32.714  0.00  0.00    -0.297 N 
ATOM      3  H   ILE A   7      -1.015  20.450  32.790  0.00  0.00    +0.150 HD
ATOM      4  O   ASN A   6      -3.870  19.159  32.309  0.00  0.00    -0.273 OA
ENDROOT
BRANCH   2   5
ATOM      5  CA  ILE A   7      -1.329  18.311  32.943  0.00  0.00    +0.149 C 
BRANCH   5   6
ATOM      6  C   ILE A   7      -1.601  17.878  34.385  0.00  0.00    +0.241 C 
ATOM      7  N   GLU A   8      -1.500  18.828  35.312  0.00  0.00    -0.297 N 
ATOM      8  H   GLU A   8      -1.231  19.788  35.016  0.00  0.00    +0.150 HD
ATOM      9  O   ILE A   7      -1.901  16.710  34.647  0.00  0.00    -0.273 OA
BRANCH   7  10
ATOM     10  CA  GLU A   8      -1.752  18.574  36.729  0.00  0.00    +0.149 C 
BRANCH  10  11
ATOM     11  C   GLU A   8      -0.762  17.631  37.401  0.00  0.00    +0.241 C 
ATOM     12  O   GLU A   8      -1.111  16.941  38.357  0.00  0.00    -0.273 OA
ATOM     13  N   GLN A   9       0.470  17.606  36.905  0.00  0.00    -0.297 N 
ATOM     14  H   GLN A   9       0.698  18.209  36.089  0.00  0.00    +0.150 HD
BRANCH  13  15
ATOM     15  CA  GLN A   9       1.515  16.756  37.472  0.00  0.00    +0.149 C 
BRANCH  15  16
ATOM     16  C   GLN A   9       2.831  16.993  36.738  0.00  0.00    +0.241 C 
ATOM     17  N   ASP A  10       3.890  16.334  37.197  0.00  0.00    -0.297 N 
ATOM     18  H   ASP A  10       3.781  15.712  38.023  0.00  0.00    +0.150 HD
ATOM     19  O   GLN A   9       2.883  17.762  35.781  0.00  0.00    -0.273 OA
BRANCH  17  20
ATOM     20  CA  ASP A  10       5.199  16.462  36.571  0.00  0.00    +0.160 C 
BRANCH  20  21
ATOM     21  C   ASP A  10       5.195  15.778  35.212  0.00  0.00    +0.241 C 
ATOM     22  O   ASP A  10       4.493  14.787  35.009  0.00  0.00    -0.273 OA
ATOM     23  N   TYR A  11       5.980  16.313  34.283  0.00  0.00    -0.298 N 
ATOM     24  H   TYR A  11       6.545  17.154  34.517  0.00  0.00    +0.150 HD
BRANCH  23  25
ATOM     25  CA  TYR A  11       6.066  15.748  32.948  0.00  0.00    +0.141 C 
BRANCH  25  26
ATOM     26  C   TYR A  11       7.379  16.131  32.277  0.00  0.00    +0.227 C 
ATOM     27  O   TYR A  11       8.197  16.853  32.851  0.00  0.00    -0.286 OA
ENDBRANCH  25  26
BRANCH  25  28
ATOM     28  CB  TYR A  11       4.895  16.223  32.086  0.00  0.00    +0.054 C 
BRANCH  28  29
ATOM     29  CG  TYR A  11       4.857  17.717  31.847  0.00  0.00    -0.020 A 
ATOM     30  CD2 TYR A  11       4.258  18.579  32.766  0.00  0.00    -0.001 A 
ATOM     31  CE2 TYR A  11       4.212  19.956  32.541  0.00  0.00    +0.036 A 
ATOM     32  CZ  TYR A  11       4.777  20.475  31.387  0.00  0.00    +0.134 A 
ATOM     33  CE1 TYR A  11       5.380  19.639  30.460  0.00  0.00    +0.036 A 
ATOM     34  CD1 TYR A  11       5.416  18.267  30.695  0.00  0.00    -0.001 A 
BRANCH  32  35
ATOM     35  OH  TYR A  11       4.747  21.829  31.160  0.00  0.00    -0.506 OA
ATOM     36  HH  TYR A  11       4.284  22.278  31.911  0.00  0.00    +0.292 HD
ENDBRANCH  32  35
ENDBRANCH  28  29
ENDBRANCH  25  28
ENDBRANCH  23  25
ENDBRANCH  20  21
BRANCH  20  37
ATOM     37  CB  ASP A  10       6.272  15.830  37.455  0.00  0.00    +0.143 C 
BRANCH  37  38
ATOM     38  CG  ASP A  10       6.666  16.717  38.614  0.00  0.00    +0.367 C 
ATOM     39  OD2 ASP A  10       5.774  17.380  39.188  0.00  0.00    -0.246 OA
ATOM     40  OD1 ASP A  10       7.869  16.742  38.953  0.00  0.00    -0.246 OA
ENDBRANCH  37  38
ENDBRANCH  20  37
ENDBRANCH  17  20
ENDBRANCH  15  16
BRANCH  15  41
ATOM     41  CB  GLN A   9       1.130  15.275  37.365  0.00  0.00    +0.039 C 
BRANCH  41  42
ATOM     42  CG  GLN A   9       1.070  14.747  35.938  0.00  0.00    +0.087 C 
BRANCH  42  43
ATOM     43  CD  GLN A   9       0.664  13.286  35.867  0.00  0.00    +0.219 C 
ATOM     44  OE1 GLN A   9      -0.404  12.901  36.355  0.00  0.00    -0.275 OA
ATOM     45  NE2 GLN A   9       1.514  12.464  35.255  0.00  0.00    -0.329 N 
ATOM     46 HE21 GLN A   9       1.290  11.452  35.173  0.00  0.00    +0.145 HD
ATOM     47 HE22 GLN A   9       2.402  12.834  34.859  0.00  0.00    +0.145 HD
ENDBRANCH  42  43
ENDBRANCH  41  42
ENDBRANCH  15  41
ENDBRANCH  13  15
ENDBRANCH  10  11
BRANCH  10  48
ATOM     48  CB  GLU A   8      -3.173  18.038  36.915  0.00  0.00    +0.041 C 
BRANCH  48  49
ATOM     49  CG  GLU A   8      -4.117  19.001  37.614  0.00  0.00    +0.116 C 
BRANCH  49  50
ATOM     50  CD  GLU A   8      -4.095  20.388  37.008  0.00  0.00    +0.365 C 
ATOM     51  OE2 GLU A   8      -3.069  21.083  37.152  0.00  0.00    -0.246 OA
ATOM     52  OE1 GLU A   8      -5.101  20.785  36.383  0.00  0.00    -0.246 OA
ENDBRANCH  49  50
ENDBRANCH  48  49
ENDBRANCH  10  48
ENDBRANCH   7  10
ENDBRANCH   5   6
BRANCH   5  53
ATOM     53  CB  ILE A   7       0.160  18.109  32.593  0.00  0.00    +0.027 C 
ATOM     54  CG2 ILE A   7       0.617  16.715  32.990  0.00  0.00    +0.002 C 
BRANCH  53  55
ATOM     55  CG1 ILE A   7       0.355  18.326  31.089  0.00  0.00    +0.002 C 
ATOM     56  CD1 ILE A   7       1.772  18.091  30.593  0.00  0.00    +0.000 C 
ENDBRANCH  53  55
ENDBRANCH   5  53
ENDBRANCH   2   5
BRANCH   1  57
ATOM     57  CA  ASN A   6      -3.289  21.484  32.190  0.00  0.00    +0.158 C 
BRANCH  57  59
ATOM     58  C   LEU A   5      -1.887  21.737  30.209  0.00  0.00    +0.241 C 
ATOM     59  N   ASN A   6      -2.236  22.150  31.424  0.00  0.00    -0.297 N 
ATOM     60  H   ASN A   6      -1.747  22.968  31.840  0.00  0.00    +0.150 HD
ATOM     61  O   LEU A   5      -2.420  20.773  29.653  0.00  0.00    -0.273 OA
BRANCH  58  62
ATOM     62  CA  LEU A   5      -0.766  22.510  29.509  0.00  0.00    +0.149 C 
BRANCH  62  64
ATOM     63  C   VAL A   4      -0.638  24.949  29.673  0.00  0.00    +0.241 C 
ATOM     64  N   LEU A   5      -0.381  23.749  30.191  0.00  0.00    -0.297 N 
ATOM     65  H   LEU A   5       0.108  23.689  31.107  0.00  0.00    +0.150 HD
ATOM     66  O   VAL A   4      -1.226  25.100  28.607  0.00  0.00    -0.273 OA
BRANCH  63  67
ATOM     67  CA  VAL A   4      -0.180  26.167  30.487  0.00  0.00    +0.149 C 
BRANCH  67  70
ATOM     68  C   SER A   3      -0.919  25.214  32.587  0.00  0.00    +0.243 C 
ATOM     69  O   SER A   3      -2.041  24.983  32.134  0.00  0.00    -0.273 OA
ATOM     70  N   VAL A   4       0.042  25.787  31.874  0.00  0.00    -0.297 N 
ATOM     71  H   VAL A   4       0.968  25.967  32.313  0.00  0.00    +0.150 HD
BRANCH  68  72
ATOM     72  CA  SER A   3      -0.580  24.851  34.024  0.00  0.00    +0.178 C 
BRANCH  72  75
ATOM     73  C   PRO A   2      -1.754  26.297  35.588  0.00  0.00    +0.241 C 
ATOM     74  O   PRO A   2      -0.793  27.059  35.697  0.00  0.00    -0.273 OA
ATOM     75  N   SER A   3      -1.736  25.211  34.827  0.00  0.00    -0.295 N 
ATOM     76  H   SER A   3      -2.576  24.598  34.804  0.00  0.00    +0.150 HD
BRANCH  73  83
ATOM     77  C   ILE A   1      -2.107  27.152  38.507  0.00  0.00    +0.241 C 
ATOM     78  O   ILE A   1      -1.462  26.103  38.540  0.00  0.00    -0.273 OA
ATOM     79  N   PRO A   2      -2.907  27.458  37.478  0.00  0.00    -0.272 N 
ATOM     80  CD  PRO A   2      -3.790  28.627  37.335  0.00  0.00    +0.094 C 
ATOM     81  CG  PRO A   2      -4.868  28.086  36.438  0.00  0.00    +0.024 C 
ATOM     82  CB  PRO A   2      -4.078  27.273  35.456  0.00  0.00    +0.031 C 
ATOM     83  CA  PRO A   2      -3.058  26.553  36.336  0.00  0.00    +0.152 C 
BRANCH  77  84
ATOM     84  CA  ILE A   1      -2.022  28.158  39.650  0.00  0.00    +0.145 C 
BRANCH  84  85
ATOM     85  N   ILE A   1      -2.091  27.450  40.922  0.00  0.00    -0.238 NA
ATOM     86  H   ILE A   1      -1.336  26.776  41.162  0.00  0.00    +0.142 HD
ENDBRANCH  84  85
BRANCH  84  87
ATOM     87  CB  ILE A   1      -0.709  28.946  39.519  0.00  0.00    +0.025 C 
ATOM     88  CG2 ILE A   1      -0.588  29.521  38.115  0.00  0.00    +0.002 C 
BRANCH  87  89
ATOM     89  CG1 ILE A   1      -0.668  30.059  40.567  0.00  0.00    +0.002 C 
ATOM     90  CD1 ILE A   1       0.620  30.851  40.571  0.00  0.00    +0.000 C 
ENDBRANCH  87  89
ENDBRANCH  84  87
ENDBRANCH  77  84
ENDBRANCH  73  83
ENDBRANCH  72  75
BRANCH  72  91
ATOM     91  CB  SER A   3      -0.307  23.351  34.125  0.00  0.00    +0.166 C 
BRANCH  91  92
ATOM     92  OG  SER A   3       0.568  22.921  33.097  0.00  0.00    -0.380 OA
ATOM     93  H   SER A   3       1.428  23.406  33.173  0.00  0.00    +0.211 HD
ENDBRANCH  91  92
ENDBRANCH  72  91
ENDBRANCH  68  72
ENDBRANCH  67  70
BRANCH  67  94
ATOM     94  CB  VAL A   4       1.111  26.766  29.858  0.00  0.00    +0.027 C 
ATOM     95  CG2 VAL A   4       2.104  25.671  29.537  0.00  0.00    +0.002 C 
ATOM     96  CG1 VAL A   4       0.769  27.551  28.618  0.00  0.00    +0.002 C 
ENDBRANCH  67  94
ENDBRANCH  63  67
ENDBRANCH  62  64
BRANCH  62  97
ATOM     97  CB  LEU A   5       0.440  21.578  29.366  0.00  0.00    +0.029 C 
BRANCH  97  98
ATOM     98  CG  LEU A   5       1.594  22.006  28.462  0.00  0.00    +0.002 C 
ATOM     99  CD2 LEU A   5       2.693  20.964  28.535  0.00  0.00    +0.000 C 
ATOM    100  CD1 LEU A   5       1.104  22.166  27.030  0.00  0.00    +0.000 C 
ENDBRANCH  97  98
ENDBRANCH  62  97
ENDBRANCH  58  62
ENDBRANCH  57  59
BRANCH  57 101
ATOM    101  CB  ASN A   6      -4.643  21.614  31.481  0.00  0.00    +0.114 C 
BRANCH 101 102
ATOM    102  CG  ASN A   6      -5.151  23.045  31.441  0.00  0.00    +0.222 C 
ATOM    103  OD1 ASN A   6      -5.212  23.724  32.469  0.00  0.00    -0.275 OA
ATOM    104  ND2 ASN A   6      -5.531  23.507  30.253  0.00  0.00    -0.329 N 
ATOM    105 HD21 ASN A   6      -5.897  24.476  30.165  0.00  0.00    +0.145 HD
ATOM    106 HD22 ASN A   6      -5.462  22.899  29.412  0.00  0.00    +0.145 HD
ENDBRANCH 101 102
ENDBRANCH  57 101
ENDBRANCH   1  57
TORSDOF 43
REMARK  Name = ../refined-set-2016/3e3c/3e3c_pocket.pdb
REMARK  241 active torsions:
REMARK  status: ('A' for Active; 'I' for Inactive)
REMARK    1  A    between atoms: _1  and  _3
REMARK    2  A    between atoms: _3  and  _4
REMARK    3  A    between atoms: _3  and  _6
REMARK    4  A    between atoms: _6  and  _7
REMARK    5  A    between atoms: _9  and  _11
REMARK    6  A    between atoms: _11  and  _12
REMARK    7  A    between atoms: _11  and  _14
REMARK    8  A    between atoms: _14  and  _15
REMARK    9  A    between atoms: _15  and  _16
REMARK   10  A    between atoms: _18  and  _20
REMARK   11  A    between atoms: _20  and  _21
REMARK   12  A    between atoms: _20  and  _23
REMARK   13  A    between atoms: _23  and  _24
REMARK   14  A    between atoms: _27  and  _29
REMARK   15  A    between atoms: _29  and  _30
REMARK   16  A    between atoms: _29  and  _32
REMARK   17  A    between atoms: _32  and  _33
REMARK   18  A    between atoms: _36  and  _38
REMARK   19  A    between atoms: _38  and  _39
REMARK   20  A    between atoms: _38  and  _41
REMARK   21  A    between atoms: _41  and  _42
REMARK   22  A    between atoms: _48  and  _50
REMARK   23  A    between atoms: _50  and  _51
REMARK   24  A    between atoms: _50  and  _53
REMARK   25  A    between atoms: _53  and  _54
REMARK   26  A    between atoms: _57  and  _59
REMARK   27  A    between atoms: _59  and  _60
REMARK   28  A    between atoms: _59  and  _62
REMARK   29  A    between atoms: _62  and  _63
REMARK   30  A    between atoms: _65  and  _67
REMARK   31  A    between atoms: _67  and  _68
REMARK   32  A    between atoms: _67  and  _70
REMARK   33  A    between atoms: _70  and  _71
REMARK   34  A    between atoms: _73  and  _75
REMARK   35  A    between atoms: _75  and  _76
REMARK   36  A    between atoms: _75  and  _78
REMARK   37  A    between atoms: _80  and  _82
REMARK   38  A    between atoms: _82  and  _83
REMARK   39  A    between atoms: _85  and  _87
REMARK   40  A    between atoms: _87  and  _88
REMARK   41  A    between atoms: _87  and  _90
REMARK   42  A    between atoms: _90  and  _91
REMARK   43  A    between atoms: _91  and  _92
REMARK   44  A    between atoms: _95  and  _97
REMARK   45  A    between atoms: _97  and  _98
REMARK   46  A    between atoms: _100  and  _102
REMARK   47  A    between atoms: _102  and  _103
REMARK   48  A    between atoms: _102  and  _105
REMARK   49  A    between atoms: _105  and  _106
REMARK   50  A    between atoms: _109  and  _111
REMARK   51  A    between atoms: _111  and  _112
REMARK   52  A    between atoms: _111  and  _114
REMARK   53  A    between atoms: _114  and  _115
REMARK   54  A    between atoms: _118  and  _120
REMARK   55  A    between atoms: _120  and  _121
REMARK   56  A    between atoms: _120  and  _123
REMARK   57  A    between atoms: _123  and  _124
REMARK   58  A    between atoms: _127  and  _129
REMARK   59  A    between atoms: _129  and  _130
REMARK   60  A    between atoms: _129  and  _132
REMARK   61  A    between atoms: _132  and  _133
REMARK   62  A    between atoms: _133  and  _134
REMARK   63  A    between atoms: _134  and  _135
REMARK   64  A    between atoms: _135  and  _136
REMARK   65  A    between atoms: _140  and  _142
REMARK   66  A    between atoms: _142  and  _143
REMARK   67  A    between atoms: _142  and  _145
REMARK   68  A    between atoms: _145  and  _146
REMARK   69  A    between atoms: _149  and  _151
REMARK   70  A    between atoms: _151  and  _152
REMARK   71  A    between atoms: _151  and  _154
REMARK   72  A    between atoms: _154  and  _155
REMARK   73  A    between atoms: _158  and  _160
REMARK   74  A    between atoms: _160  and  _161
REMARK   75  A    between atoms: _163  and  _165
REMARK   76  A    between atoms: _165  and  _166
REMARK   77  A    between atoms: _168  and  _170
REMARK   78  A    between atoms: _170  and  _171
REMARK   79  A    between atoms: _170  and  _173
REMARK   80  A    between atoms: _173  and  _174
REMARK   81  A    between atoms: _177  and  _179
REMARK   82  A    between atoms: _179  and  _180
REMARK   83  A    between atoms: _179  and  _182
REMARK   84  A    between atoms: _182  and  _183
REMARK   85  A    between atoms: _186  and  _188
REMARK   86  A    between atoms: _188  and  _189
REMARK   87  A    between atoms: _192  and  _194
REMARK   88  A    between atoms: _194  and  _195
REMARK   89  A    between atoms: _194  and  _197
REMARK   90  A    between atoms: _197  and  _198
REMARK   91  A    between atoms: _200  and  _202
REMARK   92  A    between atoms: _202  and  _203
REMARK   93  A    between atoms: _202  and  _205
REMARK   94  A    between atoms: _208  and  _210
REMARK   95  A    between atoms: _210  and  _211
REMARK   96  A    between atoms: _210  and  _213
REMARK   97  A    between atoms: _213  and  _214
REMARK   98  A    between atoms: _219  and  _220
REMARK   99  A    between atoms: _222  and  _224
REMARK  100  A    between atoms: _224  and  _225
REMARK  101  A    between atoms: _224  and  _227
REMARK  102  A    between atoms: _227  and  _228
REMARK  103  A    between atoms: _228  and  _229
REMARK  104  A    between atoms: _234  and  _236
REMARK  105  A    between atoms: _236  and  _237
REMARK  106  A    between atoms: _239  and  _241
REMARK  107  A    between atoms: _241  and  _242
REMARK  108  A    between atoms: _241  and  _244
REMARK  109  A    between atoms: _244  and  _245
REMARK  110  A    between atoms: _248  and  _250
REMARK  111  A    between atoms: _250  and  _251
REMARK  112  A    between atoms: _250  and  _253
REMARK  113  A    between atoms: _253  and  _254
REMARK  114  A    between atoms: _257  and  _259
REMARK  115  A    between atoms: _259  and  _260
REMARK  116  A    between atoms: _259  and  _262
REMARK  117  A    between atoms: _262  and  _263
REMARK  118  A    between atoms: _266  and  _268
REMARK  119  A    between atoms: _268  and  _269
REMARK  120  A    between atoms: _268  and  _271
REMARK  121  A    between atoms: _271  and  _272
REMARK  122  A    between atoms: _277  and  _279
REMARK  123  A    between atoms: _279  and  _280
REMARK  124  A    between atoms: _279  and  _282
REMARK  125  A    between atoms: _285  and  _287
REMARK  126  A    between atoms: _287  and  _288
REMARK  127  A    between atoms: _287  and  _290
REMARK  128  A    between atoms: _290  and  _291
REMARK  129  A    between atoms: _296  and  _298
REMARK  130  A    between atoms: _298  and  _299
REMARK  131  A    between atoms: _298  and  _301
REMARK  132  A    between atoms: _301  and  _302
REMARK  133  A    between atoms: _302  and  _303
REMARK  134  A    between atoms: _303  and  _304
REMARK  135  A    between atoms: _313  and  _315
REMARK  136  A    between atoms: _315  and  _316
REMARK  137  A    between atoms: _315  and  _318
REMARK  138  A    between atoms: _318  and  _319
REMARK  139  A    between atoms: _324  and  _325
REMARK  140  A    between atoms: _327  and  _329
REMARK  141  A    between atoms: _329  and  _330
REMARK  142  A    between atoms: _329  and  _332
REMARK  143  A    between atoms: _332  and  _333
REMARK  144  A    between atoms: _338  and  _340
REMARK  145  A    between atoms: _340  and  _341
REMARK  146  A    between atoms: _340  and  _343
REMARK  147  A    between atoms: _343  and  _344
REMARK  148  A    between atoms: _348  and  _349
REMARK  149  A    between atoms: _354  and  _356
REMARK  150  A    between atoms: _356  and  _357
REMARK  151  A    between atoms: _356  and  _359
REMARK  152  A    between atoms: _359  and  _360
REMARK  153  A    between atoms: _362  and  _364
REMARK  154  A    between atoms: _364  and  _365
REMARK  155  A    between atoms: _364  and  _367
REMARK  156  A    between atoms: _370  and  _372
REMARK  157  A    between atoms: _372  and  _373
REMARK  158  A    between atoms: _372  and  _375
REMARK  159  A    between atoms: _375  and  _376
REMARK  160  A    between atoms: _379  and  _381
REMARK  161  A    between atoms: _381  and  _382
REMARK  162  A    between atoms: _381  and  _384
REMARK  163  A    between atoms: _384  and  _385
REMARK  164  A    between atoms: _390  and  _392
REMARK  165  A    between atoms: _392  and  _393
REMARK  166  A    between atoms: _392  and  _395
REMARK  167  A    between atoms: _395  and  _396
REMARK  168  A    between atoms: _399  and  _401
REMARK  169  A    between atoms: _401  and  _402
REMARK  170  A    between atoms: _401  and  _404
REMARK  171  A    between atoms: _404  and  _405
REMARK  172  A    between atoms: _405  and  _406
REMARK  173  A    between atoms: _409  and  _411
REMARK  174  A    between atoms: _411  and  _412
REMARK  175  A    between atoms: _411  and  _414
REMARK  176  A    between atoms: _414  and  _415
REMARK  177  A    between atoms: _415  and  _416
REMARK  178  A    between atoms: _421  and  _423
REMARK  179  A    between atoms: _423  and  _424
REMARK  180  A    between atoms: _423  and  _426
REMARK  181  A    between atoms: _426  and  _427
REMARK  182  A    between atoms: _430  and  _432
REMARK  183  A    between atoms: _432  and  _433
REMARK  184  A    between atoms: _432  and  _435
REMARK  185  A    between atoms: _435  and  _436
REMARK  186  A    between atoms: _441  and  _442
REMARK  187  A    between atoms: _444  and  _446
REMARK  188  A    between atoms: _446  and  _447
REMARK  189  A    between atoms: _446  and  _449
REMARK  190  A    between atoms: _449  and  _450
REMARK  191  A    between atoms: _453  and  _455
REMARK  192  A    between atoms: _455  and  _456
REMARK  193  A    between atoms: _455  and  _458
REMARK  194  A    between atoms: _461  and  _463
REMARK  195  A    between atoms: _463  and  _464
REMARK  196  A    between atoms: _463  and  _466
REMARK  197  A    between atoms: _466  and  _467
REMARK  198  A    between atoms: _471  and  _472
REMARK  199  A    between atoms: _477  and  _479
REMARK  200  A    between atoms: _479  and  _480
REMARK  201  A    between atoms: _479  and  _482
REMARK  202  A    between atoms: _485  and  _487
REMARK  203  A    between atoms: _487  and  _488
REMARK  204  A    between atoms: _487  and  _490
REMARK  205  A    between atoms: _490  and  _491
REMARK  206  A    between atoms: _494  and  _496
REMARK  207  A    between atoms: _496  and  _497
REMARK  208  A    between atoms: _496  and  _499
REMARK  209  A    between atoms: _499  and  _500
REMARK  210  A    between atoms: _503  and  _505
REMARK  211  A    between atoms: _505  and  _506
REMARK  212  A    between atoms: _505  and  _508
REMARK  213  A    between atoms: _508  and  _509
REMARK  214  A    between atoms: _512  and  _514
REMARK  215  A    between atoms: _514  and  _515
REMARK  216  A    between atoms: _514  and  _517
REMARK  217  A    between atoms: _517  and  _518
REMARK  218  A    between atoms: _523  and  _525
REMARK  219  A    between atoms: _525  and  _526
REMARK  220  A    between atoms: _525  and  _528
REMARK  221  A    between atoms: _530  and  _532
REMARK  222  A    between atoms: _532  and  _533
REMARK  223  A    between atoms: _532  and  _535
REMARK  224  A    between atoms: _535  and  _536
REMARK  225  A    between atoms: _542  and  _544
REMARK  226  A    between atoms: _544  and  _545
REMARK  227  A    between atoms: _544  and  _547
REMARK  228  A    between atoms: _550  and  _552
REMARK  229  A    between atoms: _552  and  _553
REMARK  230  A    between atoms: _552  and  _555
REMARK  231  A    between atoms: _555  and  _556
REMARK  232  A    between atoms: _559  and  _561
REMARK  233  A    between atoms: _561  and  _562
REMARK  234  A    between atoms: _561  and  _564
REMARK  235  A    between atoms: _567  and  _569
REMARK  236  A    between atoms: _569  and  _570
REMARK  237  A    between atoms: _569  and  _572
REMARK  238  A    between atoms: _572  and  _573
REMARK  239  A    between atoms: _578  and  _579
REMARK  240  A    between atoms: _581  and  _583
REMARK  241  A    between atoms: _583  and  _584
REMARK                            x       y       z     vdW  Elec       q    Type
REMARK                         _______ _______ _______ _____ _____    ______ ____
ROOT
ATOM      1  C   VAL A   2      11.901  18.496  23.659  0.00  0.00    +0.241 C 
ATOM      2  N   ILE A   3      13.156  18.846  23.914  0.00  0.00    -0.297 N 
ATOM      3  H   ILE A   3      13.736  18.254  24.542  0.00  0.00    +0.150 HD
ATOM      4  O   VAL A   2      11.160  19.152  22.929  0.00  0.00    -0.273 OA
ENDROOT
BRANCH   1   5
ATOM      5  CA  VAL A   2      11.398  17.231  24.332  0.00  0.00    +0.148 C 
BRANCH   5   8
ATOM      6  C   LEU A   1      10.483  17.816  26.488  0.00  0.00    +0.238 C 
ATOM      7  O   LEU A   1      11.583  17.711  27.024  0.00  0.00    -0.274 OA
ATOM      8  N   VAL A   2      10.290  17.590  25.198  0.00  0.00    -0.297 N 
ATOM      9  H   VAL A   2       9.333  17.671  24.800  0.00  0.00    +0.150 HD
BRANCH   6  10
ATOM     10  CA  LEU A   1       9.256  18.202  27.296  0.00  0.00    +0.145 C 
BRANCH  10  11
ATOM     11  N   LEU A   1       9.350  17.536  28.586  0.00  0.00    -0.238 NA
ATOM     12  H   LEU A   1      10.083  17.841  29.258  0.00  0.00    +0.142 HD
ENDBRANCH  10  11
BRANCH  10  13
ATOM     13  CB  LEU A   1       9.212  19.728  27.459  0.00  0.00    +0.026 C 
BRANCH  13  14
ATOM     14  CG  LEU A   1       7.902  20.377  27.925  0.00  0.00    +0.002 C 
ATOM     15  CD2 LEU A   1       8.104  21.875  28.063  0.00  0.00    +0.000 C 
ATOM     16  CD1 LEU A   1       6.790  20.089  26.931  0.00  0.00    +0.000 C 
ENDBRANCH  13  14
ENDBRANCH  10  13
ENDBRANCH   6  10
ENDBRANCH   5   8
BRANCH   5  17
ATOM     17  CB  VAL A   2      10.957  16.219  23.261  0.00  0.00    +0.027 C 
ATOM     18  CG2 VAL A   2      10.487  14.941  23.933  0.00  0.00    +0.002 C 
ATOM     19  CG1 VAL A   2      12.107  15.922  22.315  0.00  0.00    +0.002 C 
ENDBRANCH   5  17
ENDBRANCH   1   5
BRANCH   2  20
ATOM     20  CA  ILE A   3      13.731  20.048  23.325  0.00  0.00    +0.149 C 
BRANCH  20  21
ATOM     21  C   ILE A   3      14.417  19.739  21.996  0.00  0.00    +0.244 C 
ATOM     22  O   ILE A   3      15.311  18.895  21.931  0.00  0.00    -0.273 OA
ATOM     23  N   PRO A   4      14.002  20.423  20.916  0.00  0.00    -0.273 N 
ATOM     24  CD  PRO A   4      12.918  21.420  20.871  0.00  0.00    +0.094 C 
ATOM     25  CG  PRO A   4      12.544  21.413  19.403  0.00  0.00    +0.024 C 
ATOM     26  CB  PRO A   4      13.878  21.302  18.748  0.00  0.00    +0.030 C 
ATOM     27  CA  PRO A   4      14.573  20.226  19.581  0.00  0.00    +0.140 C 
BRANCH  27  28
ATOM     28  C   PRO A   4      16.084  20.389  19.574  0.00  0.00    +0.227 C 
ATOM     29  O   PRO A   4      16.640  21.115  20.393  0.00  0.00    -0.286 OA
ENDBRANCH  27  28
ENDBRANCH  20  21
BRANCH  20  30
ATOM     30  CB  ILE A   3      14.755  20.698  24.280  0.00  0.00    +0.027 C 
ATOM     31  CG2 ILE A   3      15.307  21.971  23.661  0.00  0.00    +0.002 C 
BRANCH  30  32
ATOM     32  CG1 ILE A   3      14.093  20.996  25.630  0.00  0.00    +0.002 C 
ATOM     33  CD1 ILE A   3      12.903  21.934  25.546  0.00  0.00    +0.000 C 
ENDBRANCH  30  32
ENDBRANCH  20  30
ENDBRANCH   2  20
TORSDOF 12
REMARK  Name = ../refined-set-2016/3e3c/3e3c_pocket.pdb
REMARK  241 active torsions:
REMARK  status: ('A' for Active; 'I' for Inactive)
REMARK    1  A    between atoms: _1  and  _3
REMARK    2  A    between atoms: _3  and  _4
REMARK    3  A    between atoms: _3  and  _6
REMARK    4  A    between atoms: _6  and  _7
REMARK    5  A    between atoms: _9  and  _11
REMARK    6  A    between atoms: _11  and  _12
REMARK    7  A    between atoms: _11  and  _14
REMARK    8  A    between atoms: _14  and  _15
REMARK    9  A    between atoms: _15  and  _16
REMARK   10  A    between atoms: _18  and  _20
REMARK   11  A    between atoms: _20  and  _21
REMARK   12  A    between atoms: _20  and  _23
REMARK   13  A    between atoms: _23  and  _24
REMARK   14  A    between atoms: _27  and  _29
REMARK   15  A    between atoms: _29  and  _30
REMARK   16  A    between atoms: _29  and  _32
REMARK   17  A    between atoms: _32  and  _33
REMARK   18  A    between atoms: _36  and  _38
REMARK   19  A    between atoms: _38  and  _39
REMARK   20  A    between atoms: _38  and  _41
REMARK   21  A    between atoms: _41  and  _42
REMARK   22  A    between atoms: _48  and  _50
REMARK   23  A    between atoms: _50  and  _51
REMARK   24  A    between atoms: _50  and  _53
REMARK   25  A    between atoms: _53  and  _54
REMARK   26  A    between atoms: _57  and  _59
REMARK   27  A    between atoms: _59  and  _60
REMARK   28  A    between atoms: _59  and  _62
REMARK   29  A    between atoms: _62  and  _63
REMARK   30  A    between atoms: _65  and  _67
REMARK   31  A    between atoms: _67  and  _68
REMARK   32  A    between atoms: _67  and  _70
REMARK   33  A    between atoms: _70  and  _71
REMARK   34  A    between atoms: _73  and  _75
REMARK   35  A    between atoms: _75  and  _76
REMARK   36  A    between atoms: _75  and  _78
REMARK   37  A    between atoms: _80  and  _82
REMARK   38  A    between atoms: _82  and  _83
REMARK   39  A    between atoms: _85  and  _87
REMARK   40  A    between atoms: _87  and  _88
REMARK   41  A    between atoms: _87  and  _90
REMARK   42  A    between atoms: _90  and  _91
REMARK   43  A    between atoms: _91  and  _92
REMARK   44  A    between atoms: _95  and  _97
REMARK   45  A    between atoms: _97  and  _98
REMARK   46  A    between atoms: _100  and  _102
REMARK   47  A    between atoms: _102  and  _103
REMARK   48  A    between atoms: _102  and  _105
REMARK   49  A    between atoms: _105  and  _106
REMARK   50  A    between atoms: _109  and  _111
REMARK   51  A    between atoms: _111  and  _112
REMARK   52  A    between atoms: _111  and  _114
REMARK   53  A    between atoms: _114  and  _115
REMARK   54  A    between atoms: _118  and  _120
REMARK   55  A    between atoms: _120  and  _121
REMARK   56  A    between atoms: _120  and  _123
REMARK   57  A    between atoms: _123  and  _124
REMARK   58  A    between atoms: _127  and  _129
REMARK   59  A    between atoms: _129  and  _130
REMARK   60  A    between atoms: _129  and  _132
REMARK   61  A    between atoms: _132  and  _133
REMARK   62  A    between atoms: _133  and  _134
REMARK   63  A    between atoms: _134  and  _135
REMARK   64  A    between atoms: _135  and  _136
REMARK   65  A    between atoms: _140  and  _142
REMARK   66  A    between atoms: _142  and  _143
REMARK   67  A    between atoms: _142  and  _145
REMARK   68  A    between atoms: _145  and  _146
REMARK   69  A    between atoms: _149  and  _151
REMARK   70  A    between atoms: _151  and  _152
REMARK   71  A    between atoms: _151  and  _154
REMARK   72  A    between atoms: _154  and  _155
REMARK   73  A    between atoms: _158  and  _160
REMARK   74  A    between atoms: _160  and  _161
REMARK   75  A    between atoms: _163  and  _165
REMARK   76  A    between atoms: _165  and  _166
REMARK   77  A    between atoms: _168  and  _170
REMARK   78  A    between atoms: _170  and  _171
REMARK   79  A    between atoms: _170  and  _173
REMARK   80  A    between atoms: _173  and  _174
REMARK   81  A    between atoms: _177  and  _179
REMARK   82  A    between atoms: _179  and  _180
REMARK   83  A    between atoms: _179  and  _182
REMARK   84  A    between atoms: _182  and  _183
REMARK   85  A    between atoms: _186  and  _188
REMARK   86  A    between atoms: _188  and  _189
REMARK   87  A    between atoms: _192  and  _194
REMARK   88  A    between atoms: _194  and  _195
REMARK   89  A    between atoms: _194  and  _197
REMARK   90  A    between atoms: _197  and  _198
REMARK   91  A    between atoms: _200  and  _202
REMARK   92  A    between atoms: _202  and  _203
REMARK   93  A    between atoms: _202  and  _205
REMARK   94  A    between atoms: _208  and  _210
REMARK   95  A    between atoms: _210  and  _211
REMARK   96  A    between atoms: _210  and  _213
REMARK   97  A    between atoms: _213  and  _214
REMARK   98  A    between atoms: _219  and  _220
REMARK   99  A    between atoms: _222  and  _224
REMARK  100  A    between atoms: _224  and  _225
REMARK  101  A    between atoms: _224  and  _227
REMARK  102  A    between atoms: _227  and  _228
REMARK  103  A    between atoms: _228  and  _229
REMARK  104  A    between atoms: _234  and  _236
REMARK  105  A    between atoms: _236  and  _237
REMARK  106  A    between atoms: _239  and  _241
REMARK  107  A    between atoms: _241  and  _242
REMARK  108  A    between atoms: _241  and  _244
REMARK  109  A    between atoms: _244  and  _245
REMARK  110  A    between atoms: _248  and  _250
REMARK  111  A    between atoms: _250  and  _251
REMARK  112  A    between atoms: _250  and  _253
REMARK  113  A    between atoms: _253  and  _254
REMARK  114  A    between atoms: _257  and  _259
REMARK  115  A    between atoms: _259  and  _260
REMARK  116  A    between atoms: _259  and  _262
REMARK  117  A    between atoms: _262  and  _263
REMARK  118  A    between atoms: _266  and  _268
REMARK  119  A    between atoms: _268  and  _269
REMARK  120  A    between atoms: _268  and  _271
REMARK  121  A    between atoms: _271  and  _272
REMARK  122  A    between atoms: _277  and  _279
REMARK  123  A    between atoms: _279  and  _280
REMARK  124  A    between atoms: _279  and  _282
REMARK  125  A    between atoms: _285  and  _287
REMARK  126  A    between atoms: _287  and  _288
REMARK  127  A    between atoms: _287  and  _290
REMARK  128  A    between atoms: _290  and  _291
REMARK  129  A    between atoms: _296  and  _298
REMARK  130  A    between atoms: _298  and  _299
REMARK  131  A    between atoms: _298  and  _301
REMARK  132  A    between atoms: _301  and  _302
REMARK  133  A    between atoms: _302  and  _303
REMARK  134  A    between atoms: _303  and  _304
REMARK  135  A    between atoms: _313  and  _315
REMARK  136  A    between atoms: _315  and  _316
REMARK  137  A    between atoms: _315  and  _318
REMARK  138  A    between atoms: _318  and  _319
REMARK  139  A    between atoms: _324  and  _325
REMARK  140  A    between atoms: _327  and  _329
REMARK  141  A    between atoms: _329  and  _330
REMARK  142  A    between atoms: _329  and  _332
REMARK  143  A    between atoms: _332  and  _333
REMARK  144  A    between atoms: _338  and  _340
REMARK  145  A    between atoms: _340  and  _341
REMARK  146  A    between atoms: _340  and  _343
REMARK  147  A    between atoms: _343  and  _344
REMARK  148  A    between atoms: _348  and  _349
REMARK  149  A    between atoms: _354  and  _356
REMARK  150  A    between atoms: _356  and  _357
REMARK  151  A    between atoms: _356  and  _359
REMARK  152  A    between atoms: _359  and  _360
REMARK  153  A    between atoms: _362  and  _364
REMARK  154  A    between atoms: _364  and  _365
REMARK  155  A    between atoms: _364  and  _367
REMARK  156  A    between atoms: _370  and  _372
REMARK  157  A    between atoms: _372  and  _373
REMARK  158  A    between atoms: _372  and  _375
REMARK  159  A    between atoms: _375  and  _376
REMARK  160  A    between atoms: _379  and  _381
REMARK  161  A    between atoms: _381  and  _382
REMARK  162  A    between atoms: _381  and  _384
REMARK  163  A    between atoms: _384  and  _385
REMARK  164  A    between atoms: _390  and  _392
REMARK  165  A    between atoms: _392  and  _393
REMARK  166  A    between atoms: _392  and  _395
REMARK  167  A    between atoms: _395  and  _396
REMARK  168  A    between atoms: _399  and  _401
REMARK  169  A    between atoms: _401  and  _402
REMARK  170  A    between atoms: _401  and  _404
REMARK  171  A    between atoms: _404  and  _405
REMARK  172  A    between atoms: _405  and  _406
REMARK  173  A    between atoms: _409  and  _411
REMARK  174  A    between atoms: _411  and  _412
REMARK  175  A    between atoms: _411  and  _414
REMARK  176  A    between atoms: _414  and  _415
REMARK  177  A    between atoms: _415  and  _416
REMARK  178  A    between atoms: _421  and  _423
REMARK  179  A    between atoms: _423  and  _424
REMARK  180  A    between atoms: _423  and  _426
REMARK  181  A    between atoms: _426  and  _427
REMARK  182  A    between atoms: _430  and  _432
REMARK  183  A    between atoms: _432  and  _433
REMARK  184  A    between atoms: _432  and  _435
REMARK  185  A    between atoms: _435  and  _436
REMARK  186  A    between atoms: _441  and  _442
REMARK  187  A    between atoms: _444  and  _446
REMARK  188  A    between atoms: _446  and  _447
REMARK  189  A    between atoms: _446  and  _449
REMARK  190  A    between atoms: _449  and  _450
REMARK  191  A    between atoms: _453  and  _455
REMARK  192  A    between atoms: _455  and  _456
REMARK  193  A    between atoms: _455  and  _458
REMARK  194  A    between atoms: _461  and  _463
REMARK  195  A    between atoms: _463  and  _464
REMARK  196  A    between atoms: _463  and  _466
REMARK  197  A    between atoms: _466  and  _467
REMARK  198  A    between atoms: _471  and  _472
REMARK  199  A    between atoms: _477  and  _479
REMARK  200  A    between atoms: _479  and  _480
REMARK  201  A    between atoms: _479  and  _482
REMARK  202  A    between atoms: _485  and  _487
REMARK  203  A    between atoms: _487  and  _488
REMARK  204  A    between atoms: _487  and  _490
REMARK  205  A    between atoms: _490  and  _491
REMARK  206  A    between atoms: _494  and  _496
REMARK  207  A    between atoms: _496  and  _497
REMARK  208  A    between atoms: _496  and  _499
REMARK  209  A    between atoms: _499  and  _500
REMARK  210  A    between atoms: _503  and  _505
REMARK  211  A    between atoms: _505  and  _506
REMARK  212  A    between atoms: _505  and  _508
REMARK  213  A    between atoms: _508  and  _509
REMARK  214  A    between atoms: _512  and  _514
REMARK  215  A    between atoms: _514  and  _515
REMARK  216  A    between atoms: _514  and  _517
REMARK  217  A    between atoms: _517  and  _518
REMARK  218  A    between atoms: _523  and  _525
REMARK  219  A    between atoms: _525  and  _526
REMARK  220  A    between atoms: _525  and  _528
REMARK  221  A    between atoms: _530  and  _532
REMARK  222  A    between atoms: _532  and  _533
REMARK  223  A    between atoms: _532  and  _535
REMARK  224  A    between atoms: _535  and  _536
REMARK  225  A    between atoms: _542  and  _544
REMARK  226  A    between atoms: _544  and  _545
REMARK  227  A    between atoms: _544  and  _547
REMARK  228  A    between atoms: _550  and  _552
REMARK  229  A    between atoms: _552  and  _553
REMARK  230  A    between atoms: _552  and  _555
REMARK  231  A    between atoms: _555  and  _556
REMARK  232  A    between atoms: _559  and  _561
REMARK  233  A    between atoms: _561  and  _562
REMARK  234  A    between atoms: _561  and  _564
REMARK  235  A    between atoms: _567  and  _569
REMARK  236  A    between atoms: _569  and  _570
REMARK  237  A    between atoms: _569  and  _572
REMARK  238  A    between atoms: _572  and  _573
REMARK  239  A    between atoms: _578  and  _579
REMARK  240  A    between atoms: _581  and  _583
REMARK  241  A    between atoms: _583  and  _584
REMARK                            x       y       z     vdW  Elec       q    Type
REMARK                         _______ _______ _______ _____ _____    ______ ____
ROOT
ATOM      1  CA  VAL A   1      16.417  26.160  16.832  0.00  0.00    +0.133 C 
ENDROOT
BRANCH   1   2
ATOM      2  CB  VAL A   1      16.667  26.549  18.306  0.00  0.00    +0.023 C 
ATOM      3  CG2 VAL A   1      16.031  25.523  19.226  0.00  0.00    +0.002 C 
ATOM      4  CG1 VAL A   1      16.099  27.929  18.594  0.00  0.00    +0.002 C 
ENDBRANCH   1   2
BRANCH   1   5
ATOM      5  N   VAL A   1      17.247  25.029  16.444  0.00  0.00    -0.239 NA
ATOM      6  H   VAL A   1      18.196  25.209  16.059  0.00  0.00    +0.142 HD
ENDBRANCH   1   5
BRANCH   1   7
ATOM      7  C   VAL A   1      16.705  27.370  15.958  0.00  0.00    +0.224 C 
ATOM      8  O   VAL A   1      17.819  27.547  15.471  0.00  0.00    -0.287 OA
ENDBRANCH   1   7
TORSDOF 3
REMARK  Name = ../refined-set-2016/3e3c/3e3c_pocket.pdb
REMARK  241 active torsions:
REMARK  status: ('A' for Active; 'I' for Inactive)
REMARK    1  A    between atoms: _1  and  _3
REMARK    2  A    between atoms: _3  and  _4
REMARK    3  A    between atoms: _3  and  _6
REMARK    4  A    between atoms: _6  and  _7
REMARK    5  A    between atoms: _9  and  _11
REMARK    6  A    between atoms: _11  and  _12
REMARK    7  A    between atoms: _11  and  _14
REMARK    8  A    between atoms: _14  and  _15
REMARK    9  A    between atoms: _15  and  _16
REMARK   10  A    between atoms: _18  and  _20
REMARK   11  A    between atoms: _20  and  _21
REMARK   12  A    between atoms: _20  and  _23
REMARK   13  A    between atoms: _23  and  _24
REMARK   14  A    between atoms: _27  and  _29
REMARK   15  A    between atoms: _29  and  _30
REMARK   16  A    between atoms: _29  and  _32
REMARK   17  A    between atoms: _32  and  _33
REMARK   18  A    between atoms: _36  and  _38
REMARK   19  A    between atoms: _38  and  _39
REMARK   20  A    between atoms: _38  and  _41
REMARK   21  A    between atoms: _41  and  _42
REMARK   22  A    between atoms: _48  and  _50
REMARK   23  A    between atoms: _50  and  _51
REMARK   24  A    between atoms: _50  and  _53
REMARK   25  A    between atoms: _53  and  _54
REMARK   26  A    between atoms: _57  and  _59
REMARK   27  A    between atoms: _59  and  _60
REMARK   28  A    between atoms: _59  and  _62
REMARK   29  A    between atoms: _62  and  _63
REMARK   30  A    between atoms: _65  and  _67
REMARK   31  A    between atoms: _67  and  _68
REMARK   32  A    between atoms: _67  and  _70
REMARK   33  A    between atoms: _70  and  _71
REMARK   34  A    between atoms: _73  and  _75
REMARK   35  A    between atoms: _75  and  _76
REMARK   36  A    between atoms: _75  and  _78
REMARK   37  A    between atoms: _80  and  _82
REMARK   38  A    between atoms: _82  and  _83
REMARK   39  A    between atoms: _85  and  _87
REMARK   40  A    between atoms: _87  and  _88
REMARK   41  A    between atoms: _87  and  _90
REMARK   42  A    between atoms: _90  and  _91
REMARK   43  A    between atoms: _91  and  _92
REMARK   44  A    between atoms: _95  and  _97
REMARK   45  A    between atoms: _97  and  _98
REMARK   46  A    between atoms: _100  and  _102
REMARK   47  A    between atoms: _102  and  _103
REMARK   48  A    between atoms: _102  and  _105
REMARK   49  A    between atoms: _105  and  _106
REMARK   50  A    between atoms: _109  and  _111
REMARK   51  A    between atoms: _111  and  _112
REMARK   52  A    between atoms: _111  and  _114
REMARK   53  A    between atoms: _114  and  _115
REMARK   54  A    between atoms: _118  and  _120
REMARK   55  A    between atoms: _120  and  _121
REMARK   56  A    between atoms: _120  and  _123
REMARK   57  A    between atoms: _123  and  _124
REMARK   58  A    between atoms: _127  and  _129
REMARK   59  A    between atoms: _129  and  _130
REMARK   60  A    between atoms: _129  and  _132
REMARK   61  A    between atoms: _132  and  _133
REMARK   62  A    between atoms: _133  and  _134
REMARK   63  A    between atoms: _134  and  _135
REMARK   64  A    between atoms: _135  and  _136
REMARK   65  A    between atoms: _140  and  _142
REMARK   66  A    between atoms: _142  and  _143
REMARK   67  A    between atoms: _142  and  _145
REMARK   68  A    between atoms: _145  and  _146
REMARK   69  A    between atoms: _149  and  _151
REMARK   70  A    between atoms: _151  and  _152
REMARK   71  A    between atoms: _151  and  _154
REMARK   72  A    between atoms: _154  and  _155
REMARK   73  A    between atoms: _158  and  _160
REMARK   74  A    between atoms: _160  and  _161
REMARK   75  A    between atoms: _163  and  _165
REMARK   76  A    between atoms: _165  and  _166
REMARK   77  A    between atoms: _168  and  _170
REMARK   78  A    between atoms: _170  and  _171
REMARK   79  A    between atoms: _170  and  _173
REMARK   80  A    between atoms: _173  and  _174
REMARK   81  A    between atoms: _177  and  _179
REMARK   82  A    between atoms: _179  and  _180
REMARK   83  A    between atoms: _179  and  _182
REMARK   84  A    between atoms: _182  and  _183
REMARK   85  A    between atoms: _186  and  _188
REMARK   86  A    between atoms: _188  and  _189
REMARK   87  A    between atoms: _192  and  _194
REMARK   88  A    between atoms: _194  and  _195
REMARK   89  A    between atoms: _194  and  _197
REMARK   90  A    between atoms: _197  and  _198
REMARK   91  A    between atoms: _200  and  _202
REMARK   92  A    between atoms: _202  and  _203
REMARK   93  A    between atoms: _202  and  _205
REMARK   94  A    between atoms: _208  and  _210
REMARK   95  A    between atoms: _210  and  _211
REMARK   96  A    between atoms: _210  and  _213
REMARK   97  A    between atoms: _213  and  _214
REMARK   98  A    between atoms: _219  and  _220
REMARK   99  A    between atoms: _222  and  _224
REMARK  100  A    between atoms: _224  and  _225
REMARK  101  A    between atoms: _224  and  _227
REMARK  102  A    between atoms: _227  and  _228
REMARK  103  A    between atoms: _228  and  _229
REMARK  104  A    between atoms: _234  and  _236
REMARK  105  A    between atoms: _236  and  _237
REMARK  106  A    between atoms: _239  and  _241
REMARK  107  A    between atoms: _241  and  _242
REMARK  108  A    between atoms: _241  and  _244
REMARK  109  A    between atoms: _244  and  _245
REMARK  110  A    between atoms: _248  and  _250
REMARK  111  A    between atoms: _250  and  _251
REMARK  112  A    between atoms: _250  and  _253
REMARK  113  A    between atoms: _253  and  _254
REMARK  114  A    between atoms: _257  and  _259
REMARK  115  A    between atoms: _259  and  _260
REMARK  116  A    between atoms: _259  and  _262
REMARK  117  A    between atoms: _262  and  _263
REMARK  118  A    between atoms: _266  and  _268
REMARK  119  A    between atoms: _268  and  _269
REMARK  120  A    between atoms: _268  and  _271
REMARK  121  A    between atoms: _271  and  _272
REMARK  122  A    between atoms: _277  and  _279
REMARK  123  A    between atoms: _279  and  _280
REMARK  124  A    between atoms: _279  and  _282
REMARK  125  A    between atoms: _285  and  _287
REMARK  126  A    between atoms: _287  and  _288
REMARK  127  A    between atoms: _287  and  _290
REMARK  128  A    between atoms: _290  and  _291
REMARK  129  A    between atoms: _296  and  _298
REMARK  130  A    between atoms: _298  and  _299
REMARK  131  A    between atoms: _298  and  _301
REMARK  132  A    between atoms: _301  and  _302
REMARK  133  A    between atoms: _302  and  _303
REMARK  134  A    between atoms: _303  and  _304
REMARK  135  A    between atoms: _313  and  _315
REMARK  136  A    between atoms: _315  and  _316
REMARK  137  A    between atoms: _315  and  _318
REMARK  138  A    between atoms: _318  and  _319
REMARK  139  A    between atoms: _324  and  _325
REMARK  140  A    between atoms: _327  and  _329
REMARK  141  A    between atoms: _329  and  _330
REMARK  142  A    between atoms: _329  and  _332
REMARK  143  A    between atoms: _332  and  _333
REMARK  144  A    between atoms: _338  and  _340
REMARK  145  A    between atoms: _340  and  _341
REMARK  146  A    between atoms: _340  and  _343
REMARK  147  A    between atoms: _343  and  _344
REMARK  148  A    between atoms: _348  and  _349
REMARK  149  A    between atoms: _354  and  _356
REMARK  150  A    between atoms: _356  and  _357
REMARK  151  A    between atoms: _356  and  _359
REMARK  152  A    between atoms: _359  and  _360
REMARK  153  A    between atoms: _362  and  _364
REMARK  154  A    between atoms: _364  and  _365
REMARK  155  A    between atoms: _364  and  _367
REMARK  156  A    between atoms: _370  and  _372
REMARK  157  A    between atoms: _372  and  _373
REMARK  158  A    between atoms: _372  and  _375
REMARK  159  A    between atoms: _375  and  _376
REMARK  160  A    between atoms: _379  and  _381
REMARK  161  A    between atoms: _381  and  _382
REMARK  162  A    between atoms: _381  and  _384
REMARK  163  A    between atoms: _384  and  _385
REMARK  164  A    between atoms: _390  and  _392
REMARK  165  A    between atoms: _392  and  _393
REMARK  166  A    between atoms: _392  and  _395
REMARK  167  A    between atoms: _395  and  _396
REMARK  168  A    between atoms: _399  and  _401
REMARK  169  A    between atoms: _401  and  _402
REMARK  170  A    between atoms: _401  and  _404
REMARK  171  A    between atoms: _404  and  _405
REMARK  172  A    between atoms: _405  and  _406
REMARK  173  A    between atoms: _409  and  _411
REMARK  174  A    between atoms: _411  and  _412
REMARK  175  A    between atoms: _411  and  _414
REMARK  176  A    between atoms: _414  and  _415
REMARK  177  A    between atoms: _415  and  _416
REMARK  178  A    between atoms: _421  and  _423
REMARK  179  A    between atoms: _423  and  _424
REMARK  180  A    between atoms: _423  and  _426
REMARK  181  A    between atoms: _426  and  _427
REMARK  182  A    between atoms: _430  and  _432
REMARK  183  A    between atoms: _432  and  _433
REMARK  184  A    between atoms: _432  and  _435
REMARK  185  A    between atoms: _435  and  _436
REMARK  186  A    between atoms: _441  and  _442
REMARK  187  A    between atoms: _444  and  _446
REMARK  188  A    between atoms: _446  and  _447
REMARK  189  A    between atoms: _446  and  _449
REMARK  190  A    between atoms: _449  and  _450
REMARK  191  A    between atoms: _453  and  _455
REMARK  192  A    between atoms: _455  and  _456
REMARK  193  A    between atoms: _455  and  _458
REMARK  194  A    between atoms: _461  and  _463
REMARK  195  A    between atoms: _463  and  _464
REMARK  196  A    between atoms: _463  and  _466
REMARK  197  A    between atoms: _466  and  _467
REMARK  198  A    between atoms: _471  and  _472
REMARK  199  A    between atoms: _477  and  _479
REMARK  200  A    between atoms: _479  and  _480
REMARK  201  A    between atoms: _479  and  _482
REMARK  202  A    between atoms: _485  and  _487
REMARK  203  A    between atoms: _487  and  _488
REMARK  204  A    between atoms: _487  and  _490
REMARK  205  A    between atoms: _490  and  _491
REMARK  206  A    between atoms: _494  and  _496
REMARK  207  A    between atoms: _496  and  _497
REMARK  208  A    between atoms: _496  and  _499
REMARK  209  A    between atoms: _499  and  _500
REMARK  210  A    between atoms: _503  and  _505
REMARK  211  A    between atoms: _505  and  _506
REMARK  212  A    between atoms: _505  and  _508
REMARK  213  A    between atoms: _508  and  _509
REMARK  214  A    between atoms: _512  and  _514
REMARK  215  A    between atoms: _514  and  _515
REMARK  216  A    between atoms: _514  and  _517
REMARK  217  A    between atoms: _517  and  _518
REMARK  218  A    between atoms: _523  and  _525
REMARK  219  A    between atoms: _525  and  _526
REMARK  220  A    between atoms: _525  and  _528
REMARK  221  A    between atoms: _530  and  _532
REMARK  222  A    between atoms: _532  and  _533
REMARK  223  A    between atoms: _532  and  _535
REMARK  224  A    between atoms: _535  and  _536
REMARK  225  A    between atoms: _542  and  _544
REMARK  226  A    between atoms: _544  and  _545
REMARK  227  A    between atoms: _544  and  _547
REMARK  228  A    between atoms: _550  and  _552
REMARK  229  A    between atoms: _552  and  _553
REMARK  230  A    between atoms: _552  and  _555
REMARK  231  A    between atoms: _555  and  _556
REMARK  232  A    between atoms: _559  and  _561
REMARK  233  A    between atoms: _561  and  _562
REMARK  234  A    between atoms: _561  and  _564
REMARK  235  A    between atoms: _567  and  _569
REMARK  236  A    between atoms: _569  and  _570
REMARK  237  A    between atoms: _569  and  _572
REMARK  238  A    between atoms: _572  and  _573
REMARK  239  A    between atoms: _578  and  _579
REMARK  240  A    between atoms: _581  and  _583
REMARK  241  A    between atoms: _583  and  _584
REMARK                            x       y       z     vdW  Elec       q    Type
REMARK                         _______ _______ _______ _____ _____    ______ ____
ROOT
ATOM      1  CA  LEU A   3      11.414  26.584  19.525  0.00  0.00    +0.149 C 
ENDROOT
BRANCH   1   3
ATOM      2  C   THR A   2      12.360  28.764  19.088  0.00  0.00    +0.243 C 
ATOM      3  N   LEU A   3      11.452  28.022  19.700  0.00  0.00    -0.297 N 
ATOM      4  H   LEU A   3      10.752  28.479  20.319  0.00  0.00    +0.150 HD
ATOM      5  O   THR A   2      13.238  28.295  18.367  0.00  0.00    -0.273 OA
BRANCH   2   6
ATOM      6  CA  THR A   2      12.283  30.251  19.350  0.00  0.00    +0.176 C 
BRANCH   6   9
ATOM      7  C   LEU A   1      14.135  31.673  19.976  0.00  0.00    +0.238 C 
ATOM      8  O   LEU A   1      13.507  32.154  20.918  0.00  0.00    -0.274 OA
ATOM      9  N   THR A   2      13.620  30.776  19.150  0.00  0.00    -0.295 N 
ATOM     10  H   THR A   2      14.184  30.442  18.343  0.00  0.00    +0.150 HD
BRANCH   7  11
ATOM     11  CA  LEU A   1      15.557  32.108  19.672  0.00  0.00    +0.145 C 
BRANCH  11  12
ATOM     12  N   LEU A   1      15.803  33.452  20.160  0.00  0.00    -0.238 NA
ATOM     13  H   LEU A   1      15.093  33.913  20.764  0.00  0.00    +0.142 HD
ENDBRANCH  11  12
BRANCH  11  14
ATOM     14  CB  LEU A   1      16.542  31.108  20.283  0.00  0.00    +0.026 C 
BRANCH  14  15
ATOM     15  CG  LEU A   1      16.438  30.720  21.757  0.00  0.00    +0.002 C 
ATOM     16  CD2 LEU A   1      16.909  31.865  22.625  0.00  0.00    +0.000 C 
ATOM     17  CD1 LEU A   1      17.277  29.470  22.009  0.00  0.00    +0.000 C 
ENDBRANCH  14  15
ENDBRANCH  11  14
ENDBRANCH   7  11
ENDBRANCH   6   9
BRANCH   6  18
ATOM     18  CB  THR A   2      11.257  30.879  18.388  0.00  0.00    +0.137 C 
ATOM     19  CG2 THR A   2      11.166  32.374  18.610  0.00  0.00    +0.034 C 
BRANCH  18  20
ATOM     20  OG1 THR A   2      11.649  30.626  17.036  0.00  0.00    -0.382 OA
ATOM     21  HG1 THR A   2      11.689  29.649  16.883  0.00  0.00    +0.210 HD
ENDBRANCH  18  20
ENDBRANCH   6  18
ENDBRANCH   2   6
ENDBRANCH   1   3
BRANCH   1  22
ATOM     22  C   LEU A   3      10.044  26.015  19.875  0.00  0.00    +0.241 C 
ATOM     23  O   LEU A   3       9.269  26.622  20.616  0.00  0.00    -0.273 OA
ATOM     24  N   HIS A   4       9.751  24.852  19.310  0.00  0.00    -0.297 N 
ATOM     25  H   HIS A   4      10.454  24.409  18.685  0.00  0.00    +0.150 HD
BRANCH  24  26
ATOM     26  CA  HIS A   4       8.487  24.173  19.530  0.00  0.00    +0.155 C 
BRANCH  26  27
ATOM     27  C   HIS A   4       8.792  22.914  20.334  0.00  0.00    +0.241 C 
ATOM     28  N   CYS A   5       8.291  22.869  21.564  0.00  0.00    -0.297 N 
ATOM     29  H   CYS A   5       7.718  23.668  21.905  0.00  0.00    +0.150 HD
ATOM     30  O   HIS A   4       9.483  22.018  19.858  0.00  0.00    -0.273 OA
BRANCH  28  31
ATOM     31  CA  CYS A   5       8.520  21.732  22.452  0.00  0.00    +0.149 C 
BRANCH  31  32
ATOM     32  C   CYS A   5       7.226  20.968  22.698  0.00  0.00    +0.228 C 
ATOM     33  O   CYS A   5       6.204  21.564  23.049  0.00  0.00    -0.286 OA
ENDBRANCH  31  32
BRANCH  31  34
ATOM     34  CB  CYS A   5       9.065  22.218  23.798  0.00  0.00    +0.096 C 
ATOM     35  SG  CYS A   5      10.449  23.365  23.691  0.00  0.00    -0.080 S 
ENDBRANCH  31  34
ENDBRANCH  28  31
ENDBRANCH  26  27
BRANCH  26  36
ATOM     36  CB  HIS A   4       7.862  23.847  18.171  0.00  0.00    +0.076 C 
BRANCH  36  37
ATOM     37  CG  HIS A   4       6.572  23.093  18.248  0.00  0.00    +0.082 A 
ATOM     38  ND1 HIS A   4       6.519  21.721  18.376  0.00  0.00    -0.227 NA
ATOM     39  CE1 HIS A   4       5.257  21.330  18.379  0.00  0.00    +0.199 A 
ATOM     40  NE2 HIS A   4       4.489  22.399  18.261  0.00  0.00    -0.221 NA
ATOM     41  CD2 HIS A   4       5.288  23.514  18.179  0.00  0.00    +0.115 A 
ENDBRANCH  36  37
ENDBRANCH  26  36
ENDBRANCH  24  26
ENDBRANCH   1  22
BRANCH   1  42
ATOM     42  CB  LEU A   3      12.508  25.924  20.364  0.00  0.00    +0.029 C 
BRANCH  42  43
ATOM     43  CG  LEU A   3      12.771  26.480  21.765  0.00  0.00    +0.002 C 
ATOM     44  CD2 LEU A   3      11.550  26.294  22.620  0.00  0.00    +0.000 C 
ATOM     45  CD1 LEU A   3      13.962  25.763  22.389  0.00  0.00    +0.000 C 
ENDBRANCH  42  43
ENDBRANCH   1  42
TORSDOF 19
REMARK  Name = ../refined-set-2016/3e3c/3e3c_pocket.pdb
REMARK  241 active torsions:
REMARK  status: ('A' for Active; 'I' for Inactive)
REMARK    1  A    between atoms: _1  and  _3
REMARK    2  A    between atoms: _3  and  _4
REMARK    3  A    between atoms: _3  and  _6
REMARK    4  A    between atoms: _6  and  _7
REMARK    5  A    between atoms: _9  and  _11
REMARK    6  A    between atoms: _11  and  _12
REMARK    7  A    between atoms: _11  and  _14
REMARK    8  A    between atoms: _14  and  _15
REMARK    9  A    between atoms: _15  and  _16
REMARK   10  A    between atoms: _18  and  _20
REMARK   11  A    between atoms: _20  and  _21
REMARK   12  A    between atoms: _20  and  _23
REMARK   13  A    between atoms: _23  and  _24
REMARK   14  A    between atoms: _27  and  _29
REMARK   15  A    between atoms: _29  and  _30
REMARK   16  A    between atoms: _29  and  _32
REMARK   17  A    between atoms: _32  and  _33
REMARK   18  A    between atoms: _36  and  _38
REMARK   19  A    between atoms: _38  and  _39
REMARK   20  A    between atoms: _38  and  _41
REMARK   21  A    between atoms: _41  and  _42
REMARK   22  A    between atoms: _48  and  _50
REMARK   23  A    between atoms: _50  and  _51
REMARK   24  A    between atoms: _50  and  _53
REMARK   25  A    between atoms: _53  and  _54
REMARK   26  A    between atoms: _57  and  _59
REMARK   27  A    between atoms: _59  and  _60
REMARK   28  A    between atoms: _59  and  _62
REMARK   29  A    between atoms: _62  and  _63
REMARK   30  A    between atoms: _65  and  _67
REMARK   31  A    between atoms: _67  and  _68
REMARK   32  A    between atoms: _67  and  _70
REMARK   33  A    between atoms: _70  and  _71
REMARK   34  A    between atoms: _73  and  _75
REMARK   35  A    between atoms: _75  and  _76
REMARK   36  A    between atoms: _75  and  _78
REMARK   37  A    between atoms: _80  and  _82
REMARK   38  A    between atoms: _82  and  _83
REMARK   39  A    between atoms: _85  and  _87
REMARK   40  A    between atoms: _87  and  _88
REMARK   41  A    between atoms: _87  and  _90
REMARK   42  A    between atoms: _90  and  _91
REMARK   43  A    between atoms: _91  and  _92
REMARK   44  A    between atoms: _95  and  _97
REMARK   45  A    between atoms: _97  and  _98
REMARK   46  A    between atoms: _100  and  _102
REMARK   47  A    between atoms: _102  and  _103
REMARK   48  A    between atoms: _102  and  _105
REMARK   49  A    between atoms: _105  and  _106
REMARK   50  A    between atoms: _109  and  _111
REMARK   51  A    between atoms: _111  and  _112
REMARK   52  A    between atoms: _111  and  _114
REMARK   53  A    between atoms: _114  and  _115
REMARK   54  A    between atoms: _118  and  _120
REMARK   55  A    between atoms: _120  and  _121
REMARK   56  A    between atoms: _120  and  _123
REMARK   57  A    between atoms: _123  and  _124
REMARK   58  A    between atoms: _127  and  _129
REMARK   59  A    between atoms: _129  and  _130
REMARK   60  A    between atoms: _129  and  _132
REMARK   61  A    between atoms: _132  and  _133
REMARK   62  A    between atoms: _133  and  _134
REMARK   63  A    between atoms: _134  and  _135
REMARK   64  A    between atoms: _135  and  _136
REMARK   65  A    between atoms: _140  and  _142
REMARK   66  A    between atoms: _142  and  _143
REMARK   67  A    between atoms: _142  and  _145
REMARK   68  A    between atoms: _145  and  _146
REMARK   69  A    between atoms: _149  and  _151
REMARK   70  A    between atoms: _151  and  _152
REMARK   71  A    between atoms: _151  and  _154
REMARK   72  A    between atoms: _154  and  _155
REMARK   73  A    between atoms: _158  and  _160
REMARK   74  A    between atoms: _160  and  _161
REMARK   75  A    between atoms: _163  and  _165
REMARK   76  A    between atoms: _165  and  _166
REMARK   77  A    between atoms: _168  and  _170
REMARK   78  A    between atoms: _170  and  _171
REMARK   79  A    between atoms: _170  and  _173
REMARK   80  A    between atoms: _173  and  _174
REMARK   81  A    between atoms: _177  and  _179
REMARK   82  A    between atoms: _179  and  _180
REMARK   83  A    between atoms: _179  and  _182
REMARK   84  A    between atoms: _182  and  _183
REMARK   85  A    between atoms: _186  and  _188
REMARK   86  A    between atoms: _188  and  _189
REMARK   87  A    between atoms: _192  and  _194
REMARK   88  A    between atoms: _194  and  _195
REMARK   89  A    between atoms: _194  and  _197
REMARK   90  A    between atoms: _197  and  _198
REMARK   91  A    between atoms: _200  and  _202
REMARK   92  A    between atoms: _202  and  _203
REMARK   93  A    between atoms: _202  and  _205
REMARK   94  A    between atoms: _208  and  _210
REMARK   95  A    between atoms: _210  and  _211
REMARK   96  A    between atoms: _210  and  _213
REMARK   97  A    between atoms: _213  and  _214
REMARK   98  A    between atoms: _219  and  _220
REMARK   99  A    between atoms: _222  and  _224
REMARK  100  A    between atoms: _224  and  _225
REMARK  101  A    between atoms: _224  and  _227
REMARK  102  A    between atoms: _227  and  _228
REMARK  103  A    between atoms: _228  and  _229
REMARK  104  A    between atoms: _234  and  _236
REMARK  105  A    between atoms: _236  and  _237
REMARK  106  A    between atoms: _239  and  _241
REMARK  107  A    between atoms: _241  and  _242
REMARK  108  A    between atoms: _241  and  _244
REMARK  109  A    between atoms: _244  and  _245
REMARK  110  A    between atoms: _248  and  _250
REMARK  111  A    between atoms: _250  and  _251
REMARK  112  A    between atoms: _250  and  _253
REMARK  113  A    between atoms: _253  and  _254
REMARK  114  A    between atoms: _257  and  _259
REMARK  115  A    between atoms: _259  and  _260
REMARK  116  A    between atoms: _259  and  _262
REMARK  117  A    between atoms: _262  and  _263
REMARK  118  A    between atoms: _266  and  _268
REMARK  119  A    between atoms: _268  and  _269
REMARK  120  A    between atoms: _268  and  _271
REMARK  121  A    between atoms: _271  and  _272
REMARK  122  A    between atoms: _277  and  _279
REMARK  123  A    between atoms: _279  and  _280
REMARK  124  A    between atoms: _279  and  _282
REMARK  125  A    between atoms: _285  and  _287
REMARK  126  A    between atoms: _287  and  _288
REMARK  127  A    between atoms: _287  and  _290
REMARK  128  A    between atoms: _290  and  _291
REMARK  129  A    between atoms: _296  and  _298
REMARK  130  A    between atoms: _298  and  _299
REMARK  131  A    between atoms: _298  and  _301
REMARK  132  A    between atoms: _301  and  _302
REMARK  133  A    between atoms: _302  and  _303
REMARK  134  A    between atoms: _303  and  _304
REMARK  135  A    between atoms: _313  and  _315
REMARK  136  A    between atoms: _315  and  _316
REMARK  137  A    between atoms: _315  and  _318
REMARK  138  A    between atoms: _318  and  _319
REMARK  139  A    between atoms: _324  and  _325
REMARK  140  A    between atoms: _327  and  _329
REMARK  141  A    between atoms: _329  and  _330
REMARK  142  A    between atoms: _329  and  _332
REMARK  143  A    between atoms: _332  and  _333
REMARK  144  A    between atoms: _338  and  _340
REMARK  145  A    between atoms: _340  and  _341
REMARK  146  A    between atoms: _340  and  _343
REMARK  147  A    between atoms: _343  and  _344
REMARK  148  A    between atoms: _348  and  _349
REMARK  149  A    between atoms: _354  and  _356
REMARK  150  A    between atoms: _356  and  _357
REMARK  151  A    between atoms: _356  and  _359
REMARK  152  A    between atoms: _359  and  _360
REMARK  153  A    between atoms: _362  and  _364
REMARK  154  A    between atoms: _364  and  _365
REMARK  155  A    between atoms: _364  and  _367
REMARK  156  A    between atoms: _370  and  _372
REMARK  157  A    between atoms: _372  and  _373
REMARK  158  A    between atoms: _372  and  _375
REMARK  159  A    between atoms: _375  and  _376
REMARK  160  A    between atoms: _379  and  _381
REMARK  161  A    between atoms: _381  and  _382
REMARK  162  A    between atoms: _381  and  _384
REMARK  163  A    between atoms: _384  and  _385
REMARK  164  A    between atoms: _390  and  _392
REMARK  165  A    between atoms: _392  and  _393
REMARK  166  A    between atoms: _392  and  _395
REMARK  167  A    between atoms: _395  and  _396
REMARK  168  A    between atoms: _399  and  _401
REMARK  169  A    between atoms: _401  and  _402
REMARK  170  A    between atoms: _401  and  _404
REMARK  171  A    between atoms: _404  and  _405
REMARK  172  A    between atoms: _405  and  _406
REMARK  173  A    between atoms: _409  and  _411
REMARK  174  A    between atoms: _411  and  _412
REMARK  175  A    between atoms: _411  and  _414
REMARK  176  A    between atoms: _414  and  _415
REMARK  177  A    between atoms: _415  and  _416
REMARK  178  A    between atoms: _421  and  _423
REMARK  179  A    between atoms: _423  and  _424
REMARK  180  A    between atoms: _423  and  _426
REMARK  181  A    between atoms: _426  and  _427
REMARK  182  A    between atoms: _430  and  _432
REMARK  183  A    between atoms: _432  and  _433
REMARK  184  A    between atoms: _432  and  _435
REMARK  185  A    between atoms: _435  and  _436
REMARK  186  A    between atoms: _441  and  _442
REMARK  187  A    between atoms: _444  and  _446
REMARK  188  A    between atoms: _446  and  _447
REMARK  189  A    between atoms: _446  and  _449
REMARK  190  A    between atoms: _449  and  _450
REMARK  191  A    between atoms: _453  and  _455
REMARK  192  A    between atoms: _455  and  _456
REMARK  193  A    between atoms: _455  and  _458
REMARK  194  A    between atoms: _461  and  _463
REMARK  195  A    between atoms: _463  and  _464
REMARK  196  A    between atoms: _463  and  _466
REMARK  197  A    between atoms: _466  and  _467
REMARK  198  A    between atoms: _471  and  _472
REMARK  199  A    between atoms: _477  and  _479
REMARK  200  A    between atoms: _479  and  _480
REMARK  201  A    between atoms: _479  and  _482
REMARK  202  A    between atoms: _485  and  _487
REMARK  203  A    between atoms: _487  and  _488
REMARK  204  A    between atoms: _487  and  _490
REMARK  205  A    between atoms: _490  and  _491
REMARK  206  A    between atoms: _494  and  _496
REMARK  207  A    between atoms: _496  and  _497
REMARK  208  A    between atoms: _496  and  _499
REMARK  209  A    between atoms: _499  and  _500
REMARK  210  A    between atoms: _503  and  _505
REMARK  211  A    between atoms: _505  and  _506
REMARK  212  A    between atoms: _505  and  _508
REMARK  213  A    between atoms: _508  and  _509
REMARK  214  A    between atoms: _512  and  _514
REMARK  215  A    between atoms: _514  and  _515
REMARK  216  A    between atoms: _514  and  _517
REMARK  217  A    between atoms: _517  and  _518
REMARK  218  A    between atoms: _523  and  _525
REMARK  219  A    between atoms: _525  and  _526
REMARK  220  A    between atoms: _525  and  _528
REMARK  221  A    between atoms: _530  and  _532
REMARK  222  A    between atoms: _532  and  _533
REMARK  223  A    between atoms: _532  and  _535
REMARK  224  A    between atoms: _535  and  _536
REMARK  225  A    between atoms: _542  and  _544
REMARK  226  A    between atoms: _544  and  _545
REMARK  227  A    between atoms: _544  and  _547
REMARK  228  A    between atoms: _550  and  _552
REMARK  229  A    between atoms: _552  and  _553
REMARK  230  A    between atoms: _552  and  _555
REMARK  231  A    between atoms: _555  and  _556
REMARK  232  A    between atoms: _559  and  _561
REMARK  233  A    between atoms: _561  and  _562
REMARK  234  A    between atoms: _561  and  _564
REMARK  235  A    between atoms: _567  and  _569
REMARK  236  A    between atoms: _569  and  _570
REMARK  237  A    between atoms: _569  and  _572
REMARK  238  A    between atoms: _572  and  _573
REMARK  239  A    between atoms: _578  and  _579
REMARK  240  A    between atoms: _581  and  _583
REMARK  241  A    between atoms: _583  and  _584
REMARK                            x       y       z     vdW  Elec       q    Type
REMARK                         _______ _______ _______ _____ _____    ______ ____
ROOT
ATOM      1  C   ASP A   3       6.647  28.460  22.313  0.00  0.00    +0.241 C 
ATOM      2  O   ASP A   3       5.979  29.261  22.972  0.00  0.00    -0.273 OA
ATOM      3  N   VAL A   4       7.973  28.425  22.332  0.00  0.00    -0.297 N 
ATOM      4  H   VAL A   4       8.469  27.750  21.716  0.00  0.00    +0.150 HD
ENDROOT
BRANCH   3   5
ATOM      5  CA  VAL A   4       8.752  29.302  23.189  0.00  0.00    +0.149 C 
BRANCH   5   6
ATOM      6  C   VAL A   4       9.618  30.343  22.496  0.00  0.00    +0.241 C 
ATOM      7  N   TYR A   5       9.595  31.557  23.035  0.00  0.00    -0.297 N 
ATOM      8  H   TYR A   5       8.962  31.736  23.840  0.00  0.00    +0.150 HD
ATOM      9  O   VAL A   4      10.281  30.057  21.501  0.00  0.00    -0.273 OA
BRANCH   7  10
ATOM     10  CA  TYR A   5      10.424  32.644  22.539  0.00  0.00    +0.153 C 
BRANCH  10  11
ATOM     11  C   TYR A   5      11.360  32.998  23.686  0.00  0.00    +0.241 C 
ATOM     12  O   TYR A   5      10.911  33.303  24.792  0.00  0.00    -0.273 OA
ATOM     13  N   ALA A   6      12.660  32.951  23.433  0.00  0.00    -0.298 N 
ATOM     14  H   ALA A   6      12.993  32.684  22.485  0.00  0.00    +0.150 HD
BRANCH  13  15
ATOM     15  CA  ALA A   6      13.620  33.270  24.471  0.00  0.00    +0.137 C 
ATOM     16  CB  ALA A   6      14.490  32.060  24.754  0.00  0.00    +0.030 C 
BRANCH  15  17
ATOM     17  C   ALA A   6      14.479  34.472  24.089  0.00  0.00    +0.227 C 
ATOM     18  O   ALA A   6      14.997  34.554  22.976  0.00  0.00    -0.286 OA
ENDBRANCH  15  17
ENDBRANCH  13  15
ENDBRANCH  10  11
BRANCH  10  19
ATOM     19  CB  TYR A   5       9.603  33.878  22.176  0.00  0.00    +0.055 C 
BRANCH  19  20
ATOM     20  CG  TYR A   5      10.476  35.104  22.005  0.00  0.00    -0.020 A 
ATOM     21  CD2 TYR A   5      10.334  36.206  22.841  0.00  0.00    -0.001 A 
ATOM     22  CE2 TYR A   5      11.183  37.305  22.735  0.00  0.00    +0.036 A 
ATOM     23  CZ  TYR A   5      12.188  37.312  21.781  0.00  0.00    +0.134 A 
ATOM     24  CE1 TYR A   5      12.348  36.233  20.930  0.00  0.00    +0.036 A 
ATOM     25  CD1 TYR A   5      11.493  35.134  21.045  0.00  0.00    -0.001 A 
BRANCH  23  26
ATOM     26  OH  TYR A   5      13.036  38.395  21.699  0.00  0.00    -0.506 OA
ATOM     27  HH  TYR A   5      13.692  38.245  20.973  0.00  0.00    +0.292 HD
ENDBRANCH  23  26
ENDBRANCH  19  20
ENDBRANCH  10  19
ENDBRANCH   7  10
ENDBRANCH   5   6
BRANCH   5  28
ATOM     28  CB  VAL A   4       9.670  28.446  24.094  0.00  0.00    +0.027 C 
ATOM     29  CG2 VAL A   4      10.489  29.322  25.019  0.00  0.00    +0.002 C 
ATOM     30  CG1 VAL A   4       8.832  27.443  24.881  0.00  0.00    +0.002 C 
ENDBRANCH   5  28
ENDBRANCH   3   5
BRANCH   1  31
ATOM     31  CA  ASP A   3       5.975  27.427  21.428  0.00  0.00    +0.160 C 
BRANCH  31  34
ATOM     32  C   VAL A   2       5.361  25.521  22.790  0.00  0.00    +0.241 C 
ATOM     33  O   VAL A   2       6.352  24.879  22.434  0.00  0.00    -0.273 OA
ATOM     34  N   ASP A   3       5.078  26.732  22.330  0.00  0.00    -0.297 N 
ATOM     35  H   ASP A   3       4.193  27.193  22.623  0.00  0.00    +0.150 HD
BRANCH  32  36
ATOM     36  CA  VAL A   2       4.359  24.926  23.766  0.00  0.00    +0.148 C 
BRANCH  36  39
ATOM     37  C   PHE A   1       3.108  22.848  23.533  0.00  0.00    +0.239 C 
ATOM     38  O   PHE A   1       2.039  23.364  23.880  0.00  0.00    -0.274 OA
ATOM     39  N   VAL A   2       4.256  23.511  23.465  0.00  0.00    -0.297 N 
ATOM     40  H   VAL A   2       5.115  22.996  23.185  0.00  0.00    +0.150 HD
BRANCH  37  41
ATOM     41  CA  PHE A   1       3.203  21.381  23.133  0.00  0.00    +0.149 C 
BRANCH  41  42
ATOM     42  N   PHE A   1       1.983  20.616  23.330  0.00  0.00    -0.238 NA
ATOM     43  H   PHE A   1       1.060  21.094  23.311  0.00  0.00    +0.142 HD
ENDBRANCH  41  42
BRANCH  41  44
ATOM     44  CB  PHE A   1       3.612  21.314  21.660  0.00  0.00    +0.053 C 
BRANCH  44  45
ATOM     45  CG  PHE A   1       2.556  21.832  20.721  0.00  0.00    -0.020 A 
ATOM     46  CD2 PHE A   1       2.489  23.186  20.403  0.00  0.00    -0.004 A 
ATOM     47  CE2 PHE A   1       1.484  23.677  19.568  0.00  0.00    -0.000 A 
ATOM     48  CZ  PHE A   1       0.530  22.807  19.041  0.00  0.00    -0.000 A 
ATOM     49  CE1 PHE A   1       0.588  21.452  19.352  0.00  0.00    -0.000 A 
ATOM     50  CD1 PHE A   1       1.599  20.974  20.189  0.00  0.00    -0.004 A 
ENDBRANCH  44  45
ENDBRANCH  41  44
ENDBRANCH  37  41
ENDBRANCH  36  39
BRANCH  36  51
ATOM     51  CB  VAL A   2       4.865  25.180  25.201  0.00  0.00    +0.027 C 
ATOM     52  CG2 VAL A   2       3.922  24.545  26.203  0.00  0.00    +0.002 C 
ATOM     53  CG1 VAL A   2       6.264  24.630  25.364  0.00  0.00    +0.002 C 
ENDBRANCH  36  51
ENDBRANCH  32  36
ENDBRANCH  31  34
BRANCH  31  54
ATOM     54  CB  ASP A   3       5.192  28.077  20.292  0.00  0.00    +0.143 C 
BRANCH  54  55
ATOM     55  CG  ASP A   3       4.650  27.054  19.315  0.00  0.00    +0.367 C 
ATOM     56  OD2 ASP A   3       3.431  27.076  19.036  0.00  0.00    -0.246 OA
ATOM     57  OD1 ASP A   3       5.452  26.229  18.828  0.00  0.00    -0.246 OA
ENDBRANCH  54  55
ENDBRANCH  31  54
ENDBRANCH   1  31
TORSDOF 21
REMARK  Name = ../refined-set-2016/3e3c/3e3c_pocket.pdb
REMARK  241 active torsions:
REMARK  status: ('A' for Active; 'I' for Inactive)
REMARK    1  A    between atoms: _1  and  _3
REMARK    2  A    between atoms: _3  and  _4
REMARK    3  A    between atoms: _3  and  _6
REMARK    4  A    between atoms: _6  and  _7
REMARK    5  A    between atoms: _9  and  _11
REMARK    6  A    between atoms: _11  and  _12
REMARK    7  A    between atoms: _11  and  _14
REMARK    8  A    between atoms: _14  and  _15
REMARK    9  A    between atoms: _15  and  _16
REMARK   10  A    between atoms: _18  and  _20
REMARK   11  A    between atoms: _20  and  _21
REMARK   12  A    between atoms: _20  and  _23
REMARK   13  A    between atoms: _23  and  _24
REMARK   14  A    between atoms: _27  and  _29
REMARK   15  A    between atoms: _29  and  _30
REMARK   16  A    between atoms: _29  and  _32
REMARK   17  A    between atoms: _32  and  _33
REMARK   18  A    between atoms: _36  and  _38
REMARK   19  A    between atoms: _38  and  _39
REMARK   20  A    between atoms: _38  and  _41
REMARK   21  A    between atoms: _41  and  _42
REMARK   22  A    between atoms: _48  and  _50
REMARK   23  A    between atoms: _50  and  _51
REMARK   24  A    between atoms: _50  and  _53
REMARK   25  A    between atoms: _53  and  _54
REMARK   26  A    between atoms: _57  and  _59
REMARK   27  A    between atoms: _59  and  _60
REMARK   28  A    between atoms: _59  and  _62
REMARK   29  A    between atoms: _62  and  _63
REMARK   30  A    between atoms: _65  and  _67
REMARK   31  A    between atoms: _67  and  _68
REMARK   32  A    between atoms: _67  and  _70
REMARK   33  A    between atoms: _70  and  _71
REMARK   34  A    between atoms: _73  and  _75
REMARK   35  A    between atoms: _75  and  _76
REMARK   36  A    between atoms: _75  and  _78
REMARK   37  A    between atoms: _80  and  _82
REMARK   38  A    between atoms: _82  and  _83
REMARK   39  A    between atoms: _85  and  _87
REMARK   40  A    between atoms: _87  and  _88
REMARK   41  A    between atoms: _87  and  _90
REMARK   42  A    between atoms: _90  and  _91
REMARK   43  A    between atoms: _91  and  _92
REMARK   44  A    between atoms: _95  and  _97
REMARK   45  A    between atoms: _97  and  _98
REMARK   46  A    between atoms: _100  and  _102
REMARK   47  A    between atoms: _102  and  _103
REMARK   48  A    between atoms: _102  and  _105
REMARK   49  A    between atoms: _105  and  _106
REMARK   50  A    between atoms: _109  and  _111
REMARK   51  A    between atoms: _111  and  _112
REMARK   52  A    between atoms: _111  and  _114
REMARK   53  A    between atoms: _114  and  _115
REMARK   54  A    between atoms: _118  and  _120
REMARK   55  A    between atoms: _120  and  _121
REMARK   56  A    between atoms: _120  and  _123
REMARK   57  A    between atoms: _123  and  _124
REMARK   58  A    between atoms: _127  and  _129
REMARK   59  A    between atoms: _129  and  _130
REMARK   60  A    between atoms: _129  and  _132
REMARK   61  A    between atoms: _132  and  _133
REMARK   62  A    between atoms: _133  and  _134
REMARK   63  A    between atoms: _134  and  _135
REMARK   64  A    between atoms: _135  and  _136
REMARK   65  A    between atoms: _140  and  _142
REMARK   66  A    between atoms: _142  and  _143
REMARK   67  A    between atoms: _142  and  _145
REMARK   68  A    between atoms: _145  and  _146
REMARK   69  A    between atoms: _149  and  _151
REMARK   70  A    between atoms: _151  and  _152
REMARK   71  A    between atoms: _151  and  _154
REMARK   72  A    between atoms: _154  and  _155
REMARK   73  A    between atoms: _158  and  _160
REMARK   74  A    between atoms: _160  and  _161
REMARK   75  A    between atoms: _163  and  _165
REMARK   76  A    between atoms: _165  and  _166
REMARK   77  A    between atoms: _168  and  _170
REMARK   78  A    between atoms: _170  and  _171
REMARK   79  A    between atoms: _170  and  _173
REMARK   80  A    between atoms: _173  and  _174
REMARK   81  A    between atoms: _177  and  _179
REMARK   82  A    between atoms: _179  and  _180
REMARK   83  A    between atoms: _179  and  _182
REMARK   84  A    between atoms: _182  and  _183
REMARK   85  A    between atoms: _186  and  _188
REMARK   86  A    between atoms: _188  and  _189
REMARK   87  A    between atoms: _192  and  _194
REMARK   88  A    between atoms: _194  and  _195
REMARK   89  A    between atoms: _194  and  _197
REMARK   90  A    between atoms: _197  and  _198
REMARK   91  A    between atoms: _200  and  _202
REMARK   92  A    between atoms: _202  and  _203
REMARK   93  A    between atoms: _202  and  _205
REMARK   94  A    between atoms: _208  and  _210
REMARK   95  A    between atoms: _210  and  _211
REMARK   96  A    between atoms: _210  and  _213
REMARK   97  A    between atoms: _213  and  _214
REMARK   98  A    between atoms: _219  and  _220
REMARK   99  A    between atoms: _222  and  _224
REMARK  100  A    between atoms: _224  and  _225
REMARK  101  A    between atoms: _224  and  _227
REMARK  102  A    between atoms: _227  and  _228
REMARK  103  A    between atoms: _228  and  _229
REMARK  104  A    between atoms: _234  and  _236
REMARK  105  A    between atoms: _236  and  _237
REMARK  106  A    between atoms: _239  and  _241
REMARK  107  A    between atoms: _241  and  _242
REMARK  108  A    between atoms: _241  and  _244
REMARK  109  A    between atoms: _244  and  _245
REMARK  110  A    between atoms: _248  and  _250
REMARK  111  A    between atoms: _250  and  _251
REMARK  112  A    between atoms: _250  and  _253
REMARK  113  A    between atoms: _253  and  _254
REMARK  114  A    between atoms: _257  and  _259
REMARK  115  A    between atoms: _259  and  _260
REMARK  116  A    between atoms: _259  and  _262
REMARK  117  A    between atoms: _262  and  _263
REMARK  118  A    between atoms: _266  and  _268
REMARK  119  A    between atoms: _268  and  _269
REMARK  120  A    between atoms: _268  and  _271
REMARK  121  A    between atoms: _271  and  _272
REMARK  122  A    between atoms: _277  and  _279
REMARK  123  A    between atoms: _279  and  _280
REMARK  124  A    between atoms: _279  and  _282
REMARK  125  A    between atoms: _285  and  _287
REMARK  126  A    between atoms: _287  and  _288
REMARK  127  A    between atoms: _287  and  _290
REMARK  128  A    between atoms: _290  and  _291
REMARK  129  A    between atoms: _296  and  _298
REMARK  130  A    between atoms: _298  and  _299
REMARK  131  A    between atoms: _298  and  _301
REMARK  132  A    between atoms: _301  and  _302
REMARK  133  A    between atoms: _302  and  _303
REMARK  134  A    between atoms: _303  and  _304
REMARK  135  A    between atoms: _313  and  _315
REMARK  136  A    between atoms: _315  and  _316
REMARK  137  A    between atoms: _315  and  _318
REMARK  138  A    between atoms: _318  and  _319
REMARK  139  A    between atoms: _324  and  _325
REMARK  140  A    between atoms: _327  and  _329
REMARK  141  A    between atoms: _329  and  _330
REMARK  142  A    between atoms: _329  and  _332
REMARK  143  A    between atoms: _332  and  _333
REMARK  144  A    between atoms: _338  and  _340
REMARK  145  A    between atoms: _340  and  _341
REMARK  146  A    between atoms: _340  and  _343
REMARK  147  A    between atoms: _343  and  _344
REMARK  148  A    between atoms: _348  and  _349
REMARK  149  A    between atoms: _354  and  _356
REMARK  150  A    between atoms: _356  and  _357
REMARK  151  A    between atoms: _356  and  _359
REMARK  152  A    between atoms: _359  and  _360
REMARK  153  A    between atoms: _362  and  _364
REMARK  154  A    between atoms: _364  and  _365
REMARK  155  A    between atoms: _364  and  _367
REMARK  156  A    between atoms: _370  and  _372
REMARK  157  A    between atoms: _372  and  _373
REMARK  158  A    between atoms: _372  and  _375
REMARK  159  A    between atoms: _375  and  _376
REMARK  160  A    between atoms: _379  and  _381
REMARK  161  A    between atoms: _381  and  _382
REMARK  162  A    between atoms: _381  and  _384
REMARK  163  A    between atoms: _384  and  _385
REMARK  164  A    between atoms: _390  and  _392
REMARK  165  A    between atoms: _392  and  _393
REMARK  166  A    between atoms: _392  and  _395
REMARK  167  A    between atoms: _395  and  _396
REMARK  168  A    between atoms: _399  and  _401
REMARK  169  A    between atoms: _401  and  _402
REMARK  170  A    between atoms: _401  and  _404
REMARK  171  A    between atoms: _404  and  _405
REMARK  172  A    between atoms: _405  and  _406
REMARK  173  A    between atoms: _409  and  _411
REMARK  174  A    between atoms: _411  and  _412
REMARK  175  A    between atoms: _411  and  _414
REMARK  176  A    between atoms: _414  and  _415
REMARK  177  A    between atoms: _415  and  _416
REMARK  178  A    between atoms: _421  and  _423
REMARK  179  A    between atoms: _423  and  _424
REMARK  180  A    between atoms: _423  and  _426
REMARK  181  A    between atoms: _426  and  _427
REMARK  182  A    between atoms: _430  and  _432
REMARK  183  A    between atoms: _432  and  _433
REMARK  184  A    between atoms: _432  and  _435
REMARK  185  A    between atoms: _435  and  _436
REMARK  186  A    between atoms: _441  and  _442
REMARK  187  A    between atoms: _444  and  _446
REMARK  188  A    between atoms: _446  and  _447
REMARK  189  A    between atoms: _446  and  _449
REMARK  190  A    between atoms: _449  and  _450
REMARK  191  A    between atoms: _453  and  _455
REMARK  192  A    between atoms: _455  and  _456
REMARK  193  A    between atoms: _455  and  _458
REMARK  194  A    between atoms: _461  and  _463
REMARK  195  A    between atoms: _463  and  _464
REMARK  196  A    between atoms: _463  and  _466
REMARK  197  A    between atoms: _466  and  _467
REMARK  198  A    between atoms: _471  and  _472
REMARK  199  A    between atoms: _477  and  _479
REMARK  200  A    between atoms: _479  and  _480
REMARK  201  A    between atoms: _479  and  _482
REMARK  202  A    between atoms: _485  and  _487
REMARK  203  A    between atoms: _487  and  _488
REMARK  204  A    between atoms: _487  and  _490
REMARK  205  A    between atoms: _490  and  _491
REMARK  206  A    between atoms: _494  and  _496
REMARK  207  A    between atoms: _496  and  _497
REMARK  208  A    between atoms: _496  and  _499
REMARK  209  A    between atoms: _499  and  _500
REMARK  210  A    between atoms: _503  and  _505
REMARK  211  A    between atoms: _505  and  _506
REMARK  212  A    between atoms: _505  and  _508
REMARK  213  A    between atoms: _508  and  _509
REMARK  214  A    between atoms: _512  and  _514
REMARK  215  A    between atoms: _514  and  _515
REMARK  216  A    between atoms: _514  and  _517
REMARK  217  A    between atoms: _517  and  _518
REMARK  218  A    between atoms: _523  and  _525
REMARK  219  A    between atoms: _525  and  _526
REMARK  220  A    between atoms: _525  and  _528
REMARK  221  A    between atoms: _530  and  _532
REMARK  222  A    between atoms: _532  and  _533
REMARK  223  A    between atoms: _532  and  _535
REMARK  224  A    between atoms: _535  and  _536
REMARK  225  A    between atoms: _542  and  _544
REMARK  226  A    between atoms: _544  and  _545
REMARK  227  A    between atoms: _544  and  _547
REMARK  228  A    between atoms: _550  and  _552
REMARK  229  A    between atoms: _552  and  _553
REMARK  230  A    between atoms: _552  and  _555
REMARK  231  A    between atoms: _555  and  _556
REMARK  232  A    between atoms: _559  and  _561
REMARK  233  A    between atoms: _561  and  _562
REMARK  234  A    between atoms: _561  and  _564
REMARK  235  A    between atoms: _567  and  _569
REMARK  236  A    between atoms: _569  and  _570
REMARK  237  A    between atoms: _569  and  _572
REMARK  238  A    between atoms: _572  and  _573
REMARK  239  A    between atoms: _578  and  _579
REMARK  240  A    between atoms: _581  and  _583
REMARK  241  A    between atoms: _583  and  _584
REMARK                            x       y       z     vdW  Elec       q    Type
REMARK                         _______ _______ _______ _____ _____    ______ ____
ROOT
ATOM      1  O   HOH     1      -3.142  22.543  34.946  0.00  0.00    +0.000 OA
ENDROOT
TORSDOF 0
REMARK  Name = ../refined-set-2016/3e3c/3e3c_pocket.pdb
REMARK  241 active torsions:
REMARK  status: ('A' for Active; 'I' for Inactive)
REMARK    1  A    between atoms: _1  and  _3
REMARK    2  A    between atoms: _3  and  _4
REMARK    3  A    between atoms: _3  and  _6
REMARK    4  A    between atoms: _6  and  _7
REMARK    5  A    between atoms: _9  and  _11
REMARK    6  A    between atoms: _11  and  _12
REMARK    7  A    between atoms: _11  and  _14
REMARK    8  A    between atoms: _14  and  _15
REMARK    9  A    between atoms: _15  and  _16
REMARK   10  A    between atoms: _18  and  _20
REMARK   11  A    between atoms: _20  and  _21
REMARK   12  A    between atoms: _20  and  _23
REMARK   13  A    between atoms: _23  and  _24
REMARK   14  A    between atoms: _27  and  _29
REMARK   15  A    between atoms: _29  and  _30
REMARK   16  A    between atoms: _29  and  _32
REMARK   17  A    between atoms: _32  and  _33
REMARK   18  A    between atoms: _36  and  _38
REMARK   19  A    between atoms: _38  and  _39
REMARK   20  A    between atoms: _38  and  _41
REMARK   21  A    between atoms: _41  and  _42
REMARK   22  A    between atoms: _48  and  _50
REMARK   23  A    between atoms: _50  and  _51
REMARK   24  A    between atoms: _50  and  _53
REMARK   25  A    between atoms: _53  and  _54
REMARK   26  A    between atoms: _57  and  _59
REMARK   27  A    between atoms: _59  and  _60
REMARK   28  A    between atoms: _59  and  _62
REMARK   29  A    between atoms: _62  and  _63
REMARK   30  A    between atoms: _65  and  _67
REMARK   31  A    between atoms: _67  and  _68
REMARK   32  A    between atoms: _67  and  _70
REMARK   33  A    between atoms: _70  and  _71
REMARK   34  A    between atoms: _73  and  _75
REMARK   35  A    between atoms: _75  and  _76
REMARK   36  A    between atoms: _75  and  _78
REMARK   37  A    between atoms: _80  and  _82
REMARK   38  A    between atoms: _82  and  _83
REMARK   39  A    between atoms: _85  and  _87
REMARK   40  A    between atoms: _87  and  _88
REMARK   41  A    between atoms: _87  and  _90
REMARK   42  A    between atoms: _90  and  _91
REMARK   43  A    between atoms: _91  and  _92
REMARK   44  A    between atoms: _95  and  _97
REMARK   45  A    between atoms: _97  and  _98
REMARK   46  A    between atoms: _100  and  _102
REMARK   47  A    between atoms: _102  and  _103
REMARK   48  A    between atoms: _102  and  _105
REMARK   49  A    between atoms: _105  and  _106
REMARK   50  A    between atoms: _109  and  _111
REMARK   51  A    between atoms: _111  and  _112
REMARK   52  A    between atoms: _111  and  _114
REMARK   53  A    between atoms: _114  and  _115
REMARK   54  A    between atoms: _118  and  _120
REMARK   55  A    between atoms: _120  and  _121
REMARK   56  A    between atoms: _120  and  _123
REMARK   57  A    between atoms: _123  and  _124
REMARK   58  A    between atoms: _127  and  _129
REMARK   59  A    between atoms: _129  and  _130
REMARK   60  A    between atoms: _129  and  _132
REMARK   61  A    between atoms: _132  and  _133
REMARK   62  A    between atoms: _133  and  _134
REMARK   63  A    between atoms: _134  and  _135
REMARK   64  A    between atoms: _135  and  _136
REMARK   65  A    between atoms: _140  and  _142
REMARK   66  A    between atoms: _142  and  _143
REMARK   67  A    between atoms: _142  and  _145
REMARK   68  A    between atoms: _145  and  _146
REMARK   69  A    between atoms: _149  and  _151
REMARK   70  A    between atoms: _151  and  _152
REMARK   71  A    between atoms: _151  and  _154
REMARK   72  A    between atoms: _154  and  _155
REMARK   73  A    between atoms: _158  and  _160
REMARK   74  A    between atoms: _160  and  _161
REMARK   75  A    between atoms: _163  and  _165
REMARK   76  A    between atoms: _165  and  _166
REMARK   77  A    between atoms: _168  and  _170
REMARK   78  A    between atoms: _170  and  _171
REMARK   79  A    between atoms: _170  and  _173
REMARK   80  A    between atoms: _173  and  _174
REMARK   81  A    between atoms: _177  and  _179
REMARK   82  A    between atoms: _179  and  _180
REMARK   83  A    between atoms: _179  and  _182
REMARK   84  A    between atoms: _182  and  _183
REMARK   85  A    between atoms: _186  and  _188
REMARK   86  A    between atoms: _188  and  _189
REMARK   87  A    between atoms: _192  and  _194
REMARK   88  A    between atoms: _194  and  _195
REMARK   89  A    between atoms: _194  and  _197
REMARK   90  A    between atoms: _197  and  _198
REMARK   91  A    between atoms: _200  and  _202
REMARK   92  A    between atoms: _202  and  _203
REMARK   93  A    between atoms: _202  and  _205
REMARK   94  A    between atoms: _208  and  _210
REMARK   95  A    between atoms: _210  and  _211
REMARK   96  A    between atoms: _210  and  _213
REMARK   97  A    between atoms: _213  and  _214
REMARK   98  A    between atoms: _219  and  _220
REMARK   99  A    between atoms: _222  and  _224
REMARK  100  A    between atoms: _224  and  _225
REMARK  101  A    between atoms: _224  and  _227
REMARK  102  A    between atoms: _227  and  _228
REMARK  103  A    between atoms: _228  and  _229
REMARK  104  A    between atoms: _234  and  _236
REMARK  105  A    between atoms: _236  and  _237
REMARK  106  A    between atoms: _239  and  _241
REMARK  107  A    between atoms: _241  and  _242
REMARK  108  A    between atoms: _241  and  _244
REMARK  109  A    between atoms: _244  and  _245
REMARK  110  A    between atoms: _248  and  _250
REMARK  111  A    between atoms: _250  and  _251
REMARK  112  A    between atoms: _250  and  _253
REMARK  113  A    between atoms: _253  and  _254
REMARK  114  A    between atoms: _257  and  _259
REMARK  115  A    between atoms: _259  and  _260
REMARK  116  A    between atoms: _259  and  _262
REMARK  117  A    between atoms: _262  and  _263
REMARK  118  A    between atoms: _266  and  _268
REMARK  119  A    between atoms: _268  and  _269
REMARK  120  A    between atoms: _268  and  _271
REMARK  121  A    between atoms: _271  and  _272
REMARK  122  A    between atoms: _277  and  _279
REMARK  123  A    between atoms: _279  and  _280
REMARK  124  A    between atoms: _279  and  _282
REMARK  125  A    between atoms: _285  and  _287
REMARK  126  A    between atoms: _287  and  _288
REMARK  127  A    between atoms: _287  and  _290
REMARK  128  A    between atoms: _290  and  _291
REMARK  129  A    between atoms: _296  and  _298
REMARK  130  A    between atoms: _298  and  _299
REMARK  131  A    between atoms: _298  and  _301
REMARK  132  A    between atoms: _301  and  _302
REMARK  133  A    between atoms: _302  and  _303
REMARK  134  A    between atoms: _303  and  _304
REMARK  135  A    between atoms: _313  and  _315
REMARK  136  A    between atoms: _315  and  _316
REMARK  137  A    between atoms: _315  and  _318
REMARK  138  A    between atoms: _318  and  _319
REMARK  139  A    between atoms: _324  and  _325
REMARK  140  A    between atoms: _327  and  _329
REMARK  141  A    between atoms: _329  and  _330
REMARK  142  A    between atoms: _329  and  _332
REMARK  143  A    between atoms: _332  and  _333
REMARK  144  A    between atoms: _338  and  _340
REMARK  145  A    between atoms: _340  and  _341
REMARK  146  A    between atoms: _340  and  _343
REMARK  147  A    between atoms: _343  and  _344
REMARK  148  A    between atoms: _348  and  _349
REMARK  149  A    between atoms: _354  and  _356
REMARK  150  A    between atoms: _356  and  _357
REMARK  151  A    between atoms: _356  and  _359
REMARK  152  A    between atoms: _359  and  _360
REMARK  153  A    between atoms: _362  and  _364
REMARK  154  A    between atoms: _364  and  _365
REMARK  155  A    between atoms: _364  and  _367
REMARK  156  A    between atoms: _370  and  _372
REMARK  157  A    between atoms: _372  and  _373
REMARK  158  A    between atoms: _372  and  _375
REMARK  159  A    between atoms: _375  and  _376
REMARK  160  A    between atoms: _379  and  _381
REMARK  161  A    between atoms: _381  and  _382
REMARK  162  A    between atoms: _381  and  _384
REMARK  163  A    between atoms: _384  and  _385
REMARK  164  A    between atoms: _390  and  _392
REMARK  165  A    between atoms: _392  and  _393
REMARK  166  A    between atoms: _392  and  _395
REMARK  167  A    between atoms: _395  and  _396
REMARK  168  A    between atoms: _399  and  _401
REMARK  169  A    between atoms: _401  and  _402
REMARK  170  A    between atoms: _401  and  _404
REMARK  171  A    between atoms: _404  and  _405
REMARK  172  A    between atoms: _405  and  _406
REMARK  173  A    between atoms: _409  and  _411
REMARK  174  A    between atoms: _411  and  _412
REMARK  175  A    between atoms: _411  and  _414
REMARK  176  A    between atoms: _414  and  _415
REMARK  177  A    between atoms: _415  and  _416
REMARK  178  A    between atoms: _421  and  _423
REMARK  179  A    between atoms: _423  and  _424
REMARK  180  A    between atoms: _423  and  _426
REMARK  181  A    between atoms: _426  and  _427
REMARK  182  A    between atoms: _430  and  _432
REMARK  183  A    between atoms: _432  and  _433
REMARK  184  A    between atoms: _432  and  _435
REMARK  185  A    between atoms: _435  and  _436
REMARK  186  A    between atoms: _441  and  _442
REMARK  187  A    between atoms: _444  and  _446
REMARK  188  A    between atoms: _446  and  _447
REMARK  189  A    between atoms: _446  and  _449
REMARK  190  A    between atoms: _449  and  _450
REMARK  191  A    between atoms: _453  and  _455
REMARK  192  A    between atoms: _455  and  _456
REMARK  193  A    between atoms: _455  and  _458
REMARK  194  A    between atoms: _461  and  _463
REMARK  195  A    between atoms: _463  and  _464
REMARK  196  A    between atoms: _463  and  _466
REMARK  197  A    between atoms: _466  and  _467
REMARK  198  A    between atoms: _471  and  _472
REMARK  199  A    between atoms: _477  and  _479
REMARK  200  A    between atoms: _479  and  _480
REMARK  201  A    between atoms: _479  and  _482
REMARK  202  A    between atoms: _485  and  _487
REMARK  203  A    between atoms: _487  and  _488
REMARK  204  A    between atoms: _487  and  _490
REMARK  205  A    between atoms: _490  and  _491
REMARK  206  A    between atoms: _494  and  _496
REMARK  207  A    between atoms: _496  and  _497
REMARK  208  A    between atoms: _496  and  _499
REMARK  209  A    between atoms: _499  and  _500
REMARK  210  A    between atoms: _503  and  _505
REMARK  211  A    between atoms: _505  and  _506
REMARK  212  A    between atoms: _505  and  _508
REMARK  213  A    between atoms: _508  and  _509
REMARK  214  A    between atoms: _512  and  _514
REMARK  215  A    between atoms: _514  and  _515
REMARK  216  A    between atoms: _514  and  _517
REMARK  217  A    between atoms: _517  and  _518
REMARK  218  A    between atoms: _523  and  _525
REMARK  219  A    between atoms: _525  and  _526
REMARK  220  A    between atoms: _525  and  _528
REMARK  221  A    between atoms: _530  and  _532
REMARK  222  A    between atoms: _532  and  _533
REMARK  223  A    between atoms: _532  and  _535
REMARK  224  A    between atoms: _535  and  _536
REMARK  225  A    between atoms: _542  and  _544
REMARK  226  A    between atoms: _544  and  _545
REMARK  227  A    between atoms: _544  and  _547
REMARK  228  A    between atoms: _550  and  _552
REMARK  229  A    between atoms: _552  and  _553
REMARK  230  A    between atoms: _552  and  _555
REMARK  231  A    between atoms: _555  and  _556
REMARK  232  A    between atoms: _559  and  _561
REMARK  233  A    between atoms: _561  and  _562
REMARK  234  A    between atoms: _561  and  _564
REMARK  235  A    between atoms: _567  and  _569
REMARK  236  A    between atoms: _569  and  _570
REMARK  237  A    between atoms: _569  and  _572
REMARK  238  A    between atoms: _572  and  _573
REMARK  239  A    between atoms: _578  and  _579
REMARK  240  A    between atoms: _581  and  _583
REMARK  241  A    between atoms: _583  and  _584
REMARK                            x       y       z     vdW  Elec       q    Type
REMARK                         _______ _______ _______ _____ _____    ______ ____
ROOT
ATOM      1  O   HOH     1       5.530  33.296  35.738  0.00  0.00    +0.000 OA
ENDROOT
TORSDOF 0
REMARK  Name = ../refined-set-2016/3e3c/3e3c_pocket.pdb
REMARK  241 active torsions:
REMARK  status: ('A' for Active; 'I' for Inactive)
REMARK    1  A    between atoms: _1  and  _3
REMARK    2  A    between atoms: _3  and  _4
REMARK    3  A    between atoms: _3  and  _6
REMARK    4  A    between atoms: _6  and  _7
REMARK    5  A    between atoms: _9  and  _11
REMARK    6  A    between atoms: _11  and  _12
REMARK    7  A    between atoms: _11  and  _14
REMARK    8  A    between atoms: _14  and  _15
REMARK    9  A    between atoms: _15  and  _16
REMARK   10  A    between atoms: _18  and  _20
REMARK   11  A    between atoms: _20  and  _21
REMARK   12  A    between atoms: _20  and  _23
REMARK   13  A    between atoms: _23  and  _24
REMARK   14  A    between atoms: _27  and  _29
REMARK   15  A    between atoms: _29  and  _30
REMARK   16  A    between atoms: _29  and  _32
REMARK   17  A    between atoms: _32  and  _33
REMARK   18  A    between atoms: _36  and  _38
REMARK   19  A    between atoms: _38  and  _39
REMARK   20  A    between atoms: _38  and  _41
REMARK   21  A    between atoms: _41  and  _42
REMARK   22  A    between atoms: _48  and  _50
REMARK   23  A    between atoms: _50  and  _51
REMARK   24  A    between atoms: _50  and  _53
REMARK   25  A    between atoms: _53  and  _54
REMARK   26  A    between atoms: _57  and  _59
REMARK   27  A    between atoms: _59  and  _60
REMARK   28  A    between atoms: _59  and  _62
REMARK   29  A    between atoms: _62  and  _63
REMARK   30  A    between atoms: _65  and  _67
REMARK   31  A    between atoms: _67  and  _68
REMARK   32  A    between atoms: _67  and  _70
REMARK   33  A    between atoms: _70  and  _71
REMARK   34  A    between atoms: _73  and  _75
REMARK   35  A    between atoms: _75  and  _76
REMARK   36  A    between atoms: _75  and  _78
REMARK   37  A    between atoms: _80  and  _82
REMARK   38  A    between atoms: _82  and  _83
REMARK   39  A    between atoms: _85  and  _87
REMARK   40  A    between atoms: _87  and  _88
REMARK   41  A    between atoms: _87  and  _90
REMARK   42  A    between atoms: _90  and  _91
REMARK   43  A    between atoms: _91  and  _92
REMARK   44  A    between atoms: _95  and  _97
REMARK   45  A    between atoms: _97  and  _98
REMARK   46  A    between atoms: _100  and  _102
REMARK   47  A    between atoms: _102  and  _103
REMARK   48  A    between atoms: _102  and  _105
REMARK   49  A    between atoms: _105  and  _106
REMARK   50  A    between atoms: _109  and  _111
REMARK   51  A    between atoms: _111  and  _112
REMARK   52  A    between atoms: _111  and  _114
REMARK   53  A    between atoms: _114  and  _115
REMARK   54  A    between atoms: _118  and  _120
REMARK   55  A    between atoms: _120  and  _121
REMARK   56  A    between atoms: _120  and  _123
REMARK   57  A    between atoms: _123  and  _124
REMARK   58  A    between atoms: _127  and  _129
REMARK   59  A    between atoms: _129  and  _130
REMARK   60  A    between atoms: _129  and  _132
REMARK   61  A    between atoms: _132  and  _133
REMARK   62  A    between atoms: _133  and  _134
REMARK   63  A    between atoms: _134  and  _135
REMARK   64  A    between atoms: _135  and  _136
REMARK   65  A    between atoms: _140  and  _142
REMARK   66  A    between atoms: _142  and  _143
REMARK   67  A    between atoms: _142  and  _145
REMARK   68  A    between atoms: _145  and  _146
REMARK   69  A    between atoms: _149  and  _151
REMARK   70  A    between atoms: _151  and  _152
REMARK   71  A    between atoms: _151  and  _154
REMARK   72  A    between atoms: _154  and  _155
REMARK   73  A    between atoms: _158  and  _160
REMARK   74  A    between atoms: _160  and  _161
REMARK   75  A    between atoms: _163  and  _165
REMARK   76  A    between atoms: _165  and  _166
REMARK   77  A    between atoms: _168  and  _170
REMARK   78  A    between atoms: _170  and  _171
REMARK   79  A    between atoms: _170  and  _173
REMARK   80  A    between atoms: _173  and  _174
REMARK   81  A    between atoms: _177  and  _179
REMARK   82  A    between atoms: _179  and  _180
REMARK   83  A    between atoms: _179  and  _182
REMARK   84  A    between atoms: _182  and  _183
REMARK   85  A    between atoms: _186  and  _188
REMARK   86  A    between atoms: _188  and  _189
REMARK   87  A    between atoms: _192  and  _194
REMARK   88  A    between atoms: _194  and  _195
REMARK   89  A    between atoms: _194  and  _197
REMARK   90  A    between atoms: _197  and  _198
REMARK   91  A    between atoms: _200  and  _202
REMARK   92  A    between atoms: _202  and  _203
REMARK   93  A    between atoms: _202  and  _205
REMARK   94  A    between atoms: _208  and  _210
REMARK   95  A    between atoms: _210  and  _211
REMARK   96  A    between atoms: _210  and  _213
REMARK   97  A    between atoms: _213  and  _214
REMARK   98  A    between atoms: _219  and  _220
REMARK   99  A    between atoms: _222  and  _224
REMARK  100  A    between atoms: _224  and  _225
REMARK  101  A    between atoms: _224  and  _227
REMARK  102  A    between atoms: _227  and  _228
REMARK  103  A    between atoms: _228  and  _229
REMARK  104  A    between atoms: _234  and  _236
REMARK  105  A    between atoms: _236  and  _237
REMARK  106  A    between atoms: _239  and  _241
REMARK  107  A    between atoms: _241  and  _242
REMARK  108  A    between atoms: _241  and  _244
REMARK  109  A    between atoms: _244  and  _245
REMARK  110  A    between atoms: _248  and  _250
REMARK  111  A    between atoms: _250  and  _251
REMARK  112  A    between atoms: _250  and  _253
REMARK  113  A    between atoms: _253  and  _254
REMARK  114  A    between atoms: _257  and  _259
REMARK  115  A    between atoms: _259  and  _260
REMARK  116  A    between atoms: _259  and  _262
REMARK  117  A    between atoms: _262  and  _263
REMARK  118  A    between atoms: _266  and  _268
REMARK  119  A    between atoms: _268  and  _269
REMARK  120  A    between atoms: _268  and  _271
REMARK  121  A    between atoms: _271  and  _272
REMARK  122  A    between atoms: _277  and  _279
REMARK  123  A    between atoms: _279  and  _280
REMARK  124  A    between atoms: _279  and  _282
REMARK  125  A    between atoms: _285  and  _287
REMARK  126  A    between atoms: _287  and  _288
REMARK  127  A    between atoms: _287  and  _290
REMARK  128  A    between atoms: _290  and  _291
REMARK  129  A    between atoms: _296  and  _298
REMARK  130  A    between atoms: _298  and  _299
REMARK  131  A    between atoms: _298  and  _301
REMARK  132  A    between atoms: _301  and  _302
REMARK  133  A    between atoms: _302  and  _303
REMARK  134  A    between atoms: _303  and  _304
REMARK  135  A    between atoms: _313  and  _315
REMARK  136  A    between atoms: _315  and  _316
REMARK  137  A    between atoms: _315  and  _318
REMARK  138  A    between atoms: _318  and  _319
REMARK  139  A    between atoms: _324  and  _325
REMARK  140  A    between atoms: _327  and  _329
REMARK  141  A    between atoms: _329  and  _330
REMARK  142  A    between atoms: _329  and  _332
REMARK  143  A    between atoms: _332  and  _333
REMARK  144  A    between atoms: _338  and  _340
REMARK  145  A    between atoms: _340  and  _341
REMARK  146  A    between atoms: _340  and  _343
REMARK  147  A    between atoms: _343  and  _344
REMARK  148  A    between atoms: _348  and  _349
REMARK  149  A    between atoms: _354  and  _356
REMARK  150  A    between atoms: _356  and  _357
REMARK  151  A    between atoms: _356  and  _359
REMARK  152  A    between atoms: _359  and  _360
REMARK  153  A    between atoms: _362  and  _364
REMARK  154  A    between atoms: _364  and  _365
REMARK  155  A    between atoms: _364  and  _367
REMARK  156  A    between atoms: _370  and  _372
REMARK  157  A    between atoms: _372  and  _373
REMARK  158  A    between atoms: _372  and  _375
REMARK  159  A    between atoms: _375  and  _376
REMARK  160  A    between atoms: _379  and  _381
REMARK  161  A    between atoms: _381  and  _382
REMARK  162  A    between atoms: _381  and  _384
REMARK  163  A    between atoms: _384  and  _385
REMARK  164  A    between atoms: _390  and  _392
REMARK  165  A    between atoms: _392  and  _393
REMARK  166  A    between atoms: _392  and  _395
REMARK  167  A    between atoms: _395  and  _396
REMARK  168  A    between atoms: _399  and  _401
REMARK  169  A    between atoms: _401  and  _402
REMARK  170  A    between atoms: _401  and  _404
REMARK  171  A    between atoms: _404  and  _405
REMARK  172  A    between atoms: _405  and  _406
REMARK  173  A    between atoms: _409  and  _411
REMARK  174  A    between atoms: _411  and  _412
REMARK  175  A    between atoms: _411  and  _414
REMARK  176  A    between atoms: _414  and  _415
REMARK  177  A    between atoms: _415  and  _416
REMARK  178  A    between atoms: _421  and  _423
REMARK  179  A    between atoms: _423  and  _424
REMARK  180  A    between atoms: _423  and  _426
REMARK  181  A    between atoms: _426  and  _427
REMARK  182  A    between atoms: _430  and  _432
REMARK  183  A    between atoms: _432  and  _433
REMARK  184  A    between atoms: _432  and  _435
REMARK  185  A    between atoms: _435  and  _436
REMARK  186  A    between atoms: _441  and  _442
REMARK  187  A    between atoms: _444  and  _446
REMARK  188  A    between atoms: _446  and  _447
REMARK  189  A    between atoms: _446  and  _449
REMARK  190  A    between atoms: _449  and  _450
REMARK  191  A    between atoms: _453  and  _455
REMARK  192  A    between atoms: _455  and  _456
REMARK  193  A    between atoms: _455  and  _458
REMARK  194  A    between atoms: _461  and  _463
REMARK  195  A    between atoms: _463  and  _464
REMARK  196  A    between atoms: _463  and  _466
REMARK  197  A    between atoms: _466  and  _467
REMARK  198  A    between atoms: _471  and  _472
REMARK  199  A    between atoms: _477  and  _479
REMARK  200  A    between atoms: _479  and  _480
REMARK  201  A    between atoms: _479  and  _482
REMARK  202  A    between atoms: _485  and  _487
REMARK  203  A    between atoms: _487  and  _488
REMARK  204  A    between atoms: _487  and  _490
REMARK  205  A    between atoms: _490  and  _491
REMARK  206  A    between atoms: _494  and  _496
REMARK  207  A    between atoms: _496  and  _497
REMARK  208  A    between atoms: _496  and  _499
REMARK  209  A    between atoms: _499  and  _500
REMARK  210  A    between atoms: _503  and  _505
REMARK  211  A    between atoms: _505  and  _506
REMARK  212  A    between atoms: _505  and  _508
REMARK  213  A    between atoms: _508  and  _509
REMARK  214  A    between atoms: _512  and  _514
REMARK  215  A    between atoms: _514  and  _515
REMARK  216  A    between atoms: _514  and  _517
REMARK  217  A    between atoms: _517  and  _518
REMARK  218  A    between atoms: _523  and  _525
REMARK  219  A    between atoms: _525  and  _526
REMARK  220  A    between atoms: _525  and  _528
REMARK  221  A    between atoms: _530  and  _532
REMARK  222  A    between atoms: _532  and  _533
REMARK  223  A    between atoms: _532  and  _535
REMARK  224  A    between atoms: _535  and  _536
REMARK  225  A    between atoms: _542  and  _544
REMARK  226  A    between atoms: _544  and  _545
REMARK  227  A    between atoms: _544  and  _547
REMARK  228  A    between atoms: _550  and  _552
REMARK  229  A    between atoms: _552  and  _553
REMARK  230  A    between atoms: _552  and  _555
REMARK  231  A    between atoms: _555  and  _556
REMARK  232  A    between atoms: _559  and  _561
REMARK  233  A    between atoms: _561  and  _562
REMARK  234  A    between atoms: _561  and  _564
REMARK  235  A    between atoms: _567  and  _569
REMARK  236  A    between atoms: _569  and  _570
REMARK  237  A    between atoms: _569  and  _572
REMARK  238  A    between atoms: _572  and  _573
REMARK  239  A    between atoms: _578  and  _579
REMARK  240  A    between atoms: _581  and  _583
REMARK  241  A    between atoms: _583  and  _584
REMARK                            x       y       z     vdW  Elec       q    Type
REMARK                         _______ _______ _______ _____ _____    ______ ____
ROOT
ATOM      1  O   HOH     1       2.781  27.901  35.304  0.00  0.00    +0.000 OA
ENDROOT
TORSDOF 0
REMARK  Name = ../refined-set-2016/3e3c/3e3c_pocket.pdb
REMARK  241 active torsions:
REMARK  status: ('A' for Active; 'I' for Inactive)
REMARK    1  A    between atoms: _1  and  _3
REMARK    2  A    between atoms: _3  and  _4
REMARK    3  A    between atoms: _3  and  _6
REMARK    4  A    between atoms: _6  and  _7
REMARK    5  A    between atoms: _9  and  _11
REMARK    6  A    between atoms: _11  and  _12
REMARK    7  A    between atoms: _11  and  _14
REMARK    8  A    between atoms: _14  and  _15
REMARK    9  A    between atoms: _15  and  _16
REMARK   10  A    between atoms: _18  and  _20
REMARK   11  A    between atoms: _20  and  _21
REMARK   12  A    between atoms: _20  and  _23
REMARK   13  A    between atoms: _23  and  _24
REMARK   14  A    between atoms: _27  and  _29
REMARK   15  A    between atoms: _29  and  _30
REMARK   16  A    between atoms: _29  and  _32
REMARK   17  A    between atoms: _32  and  _33
REMARK   18  A    between atoms: _36  and  _38
REMARK   19  A    between atoms: _38  and  _39
REMARK   20  A    between atoms: _38  and  _41
REMARK   21  A    between atoms: _41  and  _42
REMARK   22  A    between atoms: _48  and  _50
REMARK   23  A    between atoms: _50  and  _51
REMARK   24  A    between atoms: _50  and  _53
REMARK   25  A    between atoms: _53  and  _54
REMARK   26  A    between atoms: _57  and  _59
REMARK   27  A    between atoms: _59  and  _60
REMARK   28  A    between atoms: _59  and  _62
REMARK   29  A    between atoms: _62  and  _63
REMARK   30  A    between atoms: _65  and  _67
REMARK   31  A    between atoms: _67  and  _68
REMARK   32  A    between atoms: _67  and  _70
REMARK   33  A    between atoms: _70  and  _71
REMARK   34  A    between atoms: _73  and  _75
REMARK   35  A    between atoms: _75  and  _76
REMARK   36  A    between atoms: _75  and  _78
REMARK   37  A    between atoms: _80  and  _82
REMARK   38  A    between atoms: _82  and  _83
REMARK   39  A    between atoms: _85  and  _87
REMARK   40  A    between atoms: _87  and  _88
REMARK   41  A    between atoms: _87  and  _90
REMARK   42  A    between atoms: _90  and  _91
REMARK   43  A    between atoms: _91  and  _92
REMARK   44  A    between atoms: _95  and  _97
REMARK   45  A    between atoms: _97  and  _98
REMARK   46  A    between atoms: _100  and  _102
REMARK   47  A    between atoms: _102  and  _103
REMARK   48  A    between atoms: _102  and  _105
REMARK   49  A    between atoms: _105  and  _106
REMARK   50  A    between atoms: _109  and  _111
REMARK   51  A    between atoms: _111  and  _112
REMARK   52  A    between atoms: _111  and  _114
REMARK   53  A    between atoms: _114  and  _115
REMARK   54  A    between atoms: _118  and  _120
REMARK   55  A    between atoms: _120  and  _121
REMARK   56  A    between atoms: _120  and  _123
REMARK   57  A    between atoms: _123  and  _124
REMARK   58  A    between atoms: _127  and  _129
REMARK   59  A    between atoms: _129  and  _130
REMARK   60  A    between atoms: _129  and  _132
REMARK   61  A    between atoms: _132  and  _133
REMARK   62  A    between atoms: _133  and  _134
REMARK   63  A    between atoms: _134  and  _135
REMARK   64  A    between atoms: _135  and  _136
REMARK   65  A    between atoms: _140  and  _142
REMARK   66  A    between atoms: _142  and  _143
REMARK   67  A    between atoms: _142  and  _145
REMARK   68  A    between atoms: _145  and  _146
REMARK   69  A    between atoms: _149  and  _151
REMARK   70  A    between atoms: _151  and  _152
REMARK   71  A    between atoms: _151  and  _154
REMARK   72  A    between atoms: _154  and  _155
REMARK   73  A    between atoms: _158  and  _160
REMARK   74  A    between atoms: _160  and  _161
REMARK   75  A    between atoms: _163  and  _165
REMARK   76  A    between atoms: _165  and  _166
REMARK   77  A    between atoms: _168  and  _170
REMARK   78  A    between atoms: _170  and  _171
REMARK   79  A    between atoms: _170  and  _173
REMARK   80  A    between atoms: _173  and  _174
REMARK   81  A    between atoms: _177  and  _179
REMARK   82  A    between atoms: _179  and  _180
REMARK   83  A    between atoms: _179  and  _182
REMARK   84  A    between atoms: _182  and  _183
REMARK   85  A    between atoms: _186  and  _188
REMARK   86  A    between atoms: _188  and  _189
REMARK   87  A    between atoms: _192  and  _194
REMARK   88  A    between atoms: _194  and  _195
REMARK   89  A    between atoms: _194  and  _197
REMARK   90  A    between atoms: _197  and  _198
REMARK   91  A    between atoms: _200  and  _202
REMARK   92  A    between atoms: _202  and  _203
REMARK   93  A    between atoms: _202  and  _205
REMARK   94  A    between atoms: _208  and  _210
REMARK   95  A    between atoms: _210  and  _211
REMARK   96  A    between atoms: _210  and  _213
REMARK   97  A    between atoms: _213  and  _214
REMARK   98  A    between atoms: _219  and  _220
REMARK   99  A    between atoms: _222  and  _224
REMARK  100  A    between atoms: _224  and  _225
REMARK  101  A    between atoms: _224  and  _227
REMARK  102  A    between atoms: _227  and  _228
REMARK  103  A    between atoms: _228  and  _229
REMARK  104  A    between atoms: _234  and  _236
REMARK  105  A    between atoms: _236  and  _237
REMARK  106  A    between atoms: _239  and  _241
REMARK  107  A    between atoms: _241  and  _242
REMARK  108  A    between atoms: _241  and  _244
REMARK  109  A    between atoms: _244  and  _245
REMARK  110  A    between atoms: _248  and  _250
REMARK  111  A    between atoms: _250  and  _251
REMARK  112  A    between atoms: _250  and  _253
REMARK  113  A    between atoms: _253  and  _254
REMARK  114  A    between atoms: _257  and  _259
REMARK  115  A    between atoms: _259  and  _260
REMARK  116  A    between atoms: _259  and  _262
REMARK  117  A    between atoms: _262  and  _263
REMARK  118  A    between atoms: _266  and  _268
REMARK  119  A    between atoms: _268  and  _269
REMARK  120  A    between atoms: _268  and  _271
REMARK  121  A    between atoms: _271  and  _272
REMARK  122  A    between atoms: _277  and  _279
REMARK  123  A    between atoms: _279  and  _280
REMARK  124  A    between atoms: _279  and  _282
REMARK  125  A    between atoms: _285  and  _287
REMARK  126  A    between atoms: _287  and  _288
REMARK  127  A    between atoms: _287  and  _290
REMARK  128  A    between atoms: _290  and  _291
REMARK  129  A    between atoms: _296  and  _298
REMARK  130  A    between atoms: _298  and  _299
REMARK  131  A    between atoms: _298  and  _301
REMARK  132  A    between atoms: _301  and  _302
REMARK  133  A    between atoms: _302  and  _303
REMARK  134  A    between atoms: _303  and  _304
REMARK  135  A    between atoms: _313  and  _315
REMARK  136  A    between atoms: _315  and  _316
REMARK  137  A    between atoms: _315  and  _318
REMARK  138  A    between atoms: _318  and  _319
REMARK  139  A    between atoms: _324  and  _325
REMARK  140  A    between atoms: _327  and  _329
REMARK  141  A    between atoms: _329  and  _330
REMARK  142  A    between atoms: _329  and  _332
REMARK  143  A    between atoms: _332  and  _333
REMARK  144  A    between atoms: _338  and  _340
REMARK  145  A    between atoms: _340  and  _341
REMARK  146  A    between atoms: _340  and  _343
REMARK  147  A    between atoms: _343  and  _344
REMARK  148  A    between atoms: _348  and  _349
REMARK  149  A    between atoms: _354  and  _356
REMARK  150  A    between atoms: _356  and  _357
REMARK  151  A    between atoms: _356  and  _359
REMARK  152  A    between atoms: _359  and  _360
REMARK  153  A    between atoms: _362  and  _364
REMARK  154  A    between atoms: _364  and  _365
REMARK  155  A    between atoms: _364  and  _367
REMARK  156  A    between atoms: _370  and  _372
REMARK  157  A    between atoms: _372  and  _373
REMARK  158  A    between atoms: _372  and  _375
REMARK  159  A    between atoms: _375  and  _376
REMARK  160  A    between atoms: _379  and  _381
REMARK  161  A    between atoms: _381  and  _382
REMARK  162  A    between atoms: _381  and  _384
REMARK  163  A    between atoms: _384  and  _385
REMARK  164  A    between atoms: _390  and  _392
REMARK  165  A    between atoms: _392  and  _393
REMARK  166  A    between atoms: _392  and  _395
REMARK  167  A    between atoms: _395  and  _396
REMARK  168  A    between atoms: _399  and  _401
REMARK  169  A    between atoms: _401  and  _402
REMARK  170  A    between atoms: _401  and  _404
REMARK  171  A    between atoms: _404  and  _405
REMARK  172  A    between atoms: _405  and  _406
REMARK  173  A    between atoms: _409  and  _411
REMARK  174  A    between atoms: _411  and  _412
REMARK  175  A    between atoms: _411  and  _414
REMARK  176  A    between atoms: _414  and  _415
REMARK  177  A    between atoms: _415  and  _416
REMARK  178  A    between atoms: _421  and  _423
REMARK  179  A    between atoms: _423  and  _424
REMARK  180  A    between atoms: _423  and  _426
REMARK  181  A    between atoms: _426  and  _427
REMARK  182  A    between atoms: _430  and  _432
REMARK  183  A    between atoms: _432  and  _433
REMARK  184  A    between atoms: _432  and  _435
REMARK  185  A    between atoms: _435  and  _436
REMARK  186  A    between atoms: _441  and  _442
REMARK  187  A    between atoms: _444  and  _446
REMARK  188  A    between atoms: _446  and  _447
REMARK  189  A    between atoms: _446  and  _449
REMARK  190  A    between atoms: _449  and  _450
REMARK  191  A    between atoms: _453  and  _455
REMARK  192  A    between atoms: _455  and  _456
REMARK  193  A    between atoms: _455  and  _458
REMARK  194  A    between atoms: _461  and  _463
REMARK  195  A    between atoms: _463  and  _464
REMARK  196  A    between atoms: _463  and  _466
REMARK  197  A    between atoms: _466  and  _467
REMARK  198  A    between atoms: _471  and  _472
REMARK  199  A    between atoms: _477  and  _479
REMARK  200  A    between atoms: _479  and  _480
REMARK  201  A    between atoms: _479  and  _482
REMARK  202  A    between atoms: _485  and  _487
REMARK  203  A    between atoms: _487  and  _488
REMARK  204  A    between atoms: _487  and  _490
REMARK  205  A    between atoms: _490  and  _491
REMARK  206  A    between atoms: _494  and  _496
REMARK  207  A    between atoms: _496  and  _497
REMARK  208  A    between atoms: _496  and  _499
REMARK  209  A    between atoms: _499  and  _500
REMARK  210  A    between atoms: _503  and  _505
REMARK  211  A    between atoms: _505  and  _506
REMARK  212  A    between atoms: _505  and  _508
REMARK  213  A    between atoms: _508  and  _509
REMARK  214  A    between atoms: _512  and  _514
REMARK  215  A    between atoms: _514  and  _515
REMARK  216  A    between atoms: _514  and  _517
REMARK  217  A    between atoms: _517  and  _518
REMARK  218  A    between atoms: _523  and  _525
REMARK  219  A    between atoms: _525  and  _526
REMARK  220  A    between atoms: _525  and  _528
REMARK  221  A    between atoms: _530  and  _532
REMARK  222  A    between atoms: _532  and  _533
REMARK  223  A    between atoms: _532  and  _535
REMARK  224  A    between atoms: _535  and  _536
REMARK  225  A    between atoms: _542  and  _544
REMARK  226  A    between atoms: _544  and  _545
REMARK  227  A    between atoms: _544  and  _547
REMARK  228  A    between atoms: _550  and  _552
REMARK  229  A    between atoms: _552  and  _553
REMARK  230  A    between atoms: _552  and  _555
REMARK  231  A    between atoms: _555  and  _556
REMARK  232  A    between atoms: _559  and  _561
REMARK  233  A    between atoms: _561  and  _562
REMARK  234  A    between atoms: _561  and  _564
REMARK  235  A    between atoms: _567  and  _569
REMARK  236  A    between atoms: _569  and  _570
REMARK  237  A    between atoms: _569  and  _572
REMARK  238  A    between atoms: _572  and  _573
REMARK  239  A    between atoms: _578  and  _579
REMARK  240  A    between atoms: _581  and  _583
REMARK  241  A    between atoms: _583  and  _584
REMARK                            x       y       z     vdW  Elec       q    Type
REMARK                         _______ _______ _______ _____ _____    ______ ____
ROOT
ATOM      1  O   HOH     1       5.397  19.905  36.053  0.00  0.00    +0.000 OA
ENDROOT
TORSDOF 0
REMARK  Name = ../refined-set-2016/3e3c/3e3c_pocket.pdb
REMARK  241 active torsions:
REMARK  status: ('A' for Active; 'I' for Inactive)
REMARK    1  A    between atoms: _1  and  _3
REMARK    2  A    between atoms: _3  and  _4
REMARK    3  A    between atoms: _3  and  _6
REMARK    4  A    between atoms: _6  and  _7
REMARK    5  A    between atoms: _9  and  _11
REMARK    6  A    between atoms: _11  and  _12
REMARK    7  A    between atoms: _11  and  _14
REMARK    8  A    between atoms: _14  and  _15
REMARK    9  A    between atoms: _15  and  _16
REMARK   10  A    between atoms: _18  and  _20
REMARK   11  A    between atoms: _20  and  _21
REMARK   12  A    between atoms: _20  and  _23
REMARK   13  A    between atoms: _23  and  _24
REMARK   14  A    between atoms: _27  and  _29
REMARK   15  A    between atoms: _29  and  _30
REMARK   16  A    between atoms: _29  and  _32
REMARK   17  A    between atoms: _32  and  _33
REMARK   18  A    between atoms: _36  and  _38
REMARK   19  A    between atoms: _38  and  _39
REMARK   20  A    between atoms: _38  and  _41
REMARK   21  A    between atoms: _41  and  _42
REMARK   22  A    between atoms: _48  and  _50
REMARK   23  A    between atoms: _50  and  _51
REMARK   24  A    between atoms: _50  and  _53
REMARK   25  A    between atoms: _53  and  _54
REMARK   26  A    between atoms: _57  and  _59
REMARK   27  A    between atoms: _59  and  _60
REMARK   28  A    between atoms: _59  and  _62
REMARK   29  A    between atoms: _62  and  _63
REMARK   30  A    between atoms: _65  and  _67
REMARK   31  A    between atoms: _67  and  _68
REMARK   32  A    between atoms: _67  and  _70
REMARK   33  A    between atoms: _70  and  _71
REMARK   34  A    between atoms: _73  and  _75
REMARK   35  A    between atoms: _75  and  _76
REMARK   36  A    between atoms: _75  and  _78
REMARK   37  A    between atoms: _80  and  _82
REMARK   38  A    between atoms: _82  and  _83
REMARK   39  A    between atoms: _85  and  _87
REMARK   40  A    between atoms: _87  and  _88
REMARK   41  A    between atoms: _87  and  _90
REMARK   42  A    between atoms: _90  and  _91
REMARK   43  A    between atoms: _91  and  _92
REMARK   44  A    between atoms: _95  and  _97
REMARK   45  A    between atoms: _97  and  _98
REMARK   46  A    between atoms: _100  and  _102
REMARK   47  A    between atoms: _102  and  _103
REMARK   48  A    between atoms: _102  and  _105
REMARK   49  A    between atoms: _105  and  _106
REMARK   50  A    between atoms: _109  and  _111
REMARK   51  A    between atoms: _111  and  _112
REMARK   52  A    between atoms: _111  and  _114
REMARK   53  A    between atoms: _114  and  _115
REMARK   54  A    between atoms: _118  and  _120
REMARK   55  A    between atoms: _120  and  _121
REMARK   56  A    between atoms: _120  and  _123
REMARK   57  A    between atoms: _123  and  _124
REMARK   58  A    between atoms: _127  and  _129
REMARK   59  A    between atoms: _129  and  _130
REMARK   60  A    between atoms: _129  and  _132
REMARK   61  A    between atoms: _132  and  _133
REMARK   62  A    between atoms: _133  and  _134
REMARK   63  A    between atoms: _134  and  _135
REMARK   64  A    between atoms: _135  and  _136
REMARK   65  A    between atoms: _140  and  _142
REMARK   66  A    between atoms: _142  and  _143
REMARK   67  A    between atoms: _142  and  _145
REMARK   68  A    between atoms: _145  and  _146
REMARK   69  A    between atoms: _149  and  _151
REMARK   70  A    between atoms: _151  and  _152
REMARK   71  A    between atoms: _151  and  _154
REMARK   72  A    between atoms: _154  and  _155
REMARK   73  A    between atoms: _158  and  _160
REMARK   74  A    between atoms: _160  and  _161
REMARK   75  A    between atoms: _163  and  _165
REMARK   76  A    between atoms: _165  and  _166
REMARK   77  A    between atoms: _168  and  _170
REMARK   78  A    between atoms: _170  and  _171
REMARK   79  A    between atoms: _170  and  _173
REMARK   80  A    between atoms: _173  and  _174
REMARK   81  A    between atoms: _177  and  _179
REMARK   82  A    between atoms: _179  and  _180
REMARK   83  A    between atoms: _179  and  _182
REMARK   84  A    between atoms: _182  and  _183
REMARK   85  A    between atoms: _186  and  _188
REMARK   86  A    between atoms: _188  and  _189
REMARK   87  A    between atoms: _192  and  _194
REMARK   88  A    between atoms: _194  and  _195
REMARK   89  A    between atoms: _194  and  _197
REMARK   90  A    between atoms: _197  and  _198
REMARK   91  A    between atoms: _200  and  _202
REMARK   92  A    between atoms: _202  and  _203
REMARK   93  A    between atoms: _202  and  _205
REMARK   94  A    between atoms: _208  and  _210
REMARK   95  A    between atoms: _210  and  _211
REMARK   96  A    between atoms: _210  and  _213
REMARK   97  A    between atoms: _213  and  _214
REMARK   98  A    between atoms: _219  and  _220
REMARK   99  A    between atoms: _222  and  _224
REMARK  100  A    between atoms: _224  and  _225
REMARK  101  A    between atoms: _224  and  _227
REMARK  102  A    between atoms: _227  and  _228
REMARK  103  A    between atoms: _228  and  _229
REMARK  104  A    between atoms: _234  and  _236
REMARK  105  A    between atoms: _236  and  _237
REMARK  106  A    between atoms: _239  and  _241
REMARK  107  A    between atoms: _241  and  _242
REMARK  108  A    between atoms: _241  and  _244
REMARK  109  A    between atoms: _244  and  _245
REMARK  110  A    between atoms: _248  and  _250
REMARK  111  A    between atoms: _250  and  _251
REMARK  112  A    between atoms: _250  and  _253
REMARK  113  A    between atoms: _253  and  _254
REMARK  114  A    between atoms: _257  and  _259
REMARK  115  A    between atoms: _259  and  _260
REMARK  116  A    between atoms: _259  and  _262
REMARK  117  A    between atoms: _262  and  _263
REMARK  118  A    between atoms: _266  and  _268
REMARK  119  A    between atoms: _268  and  _269
REMARK  120  A    between atoms: _268  and  _271
REMARK  121  A    between atoms: _271  and  _272
REMARK  122  A    between atoms: _277  and  _279
REMARK  123  A    between atoms: _279  and  _280
REMARK  124  A    between atoms: _279  and  _282
REMARK  125  A    between atoms: _285  and  _287
REMARK  126  A    between atoms: _287  and  _288
REMARK  127  A    between atoms: _287  and  _290
REMARK  128  A    between atoms: _290  and  _291
REMARK  129  A    between atoms: _296  and  _298
REMARK  130  A    between atoms: _298  and  _299
REMARK  131  A    between atoms: _298  and  _301
REMARK  132  A    between atoms: _301  and  _302
REMARK  133  A    between atoms: _302  and  _303
REMARK  134  A    between atoms: _303  and  _304
REMARK  135  A    between atoms: _313  and  _315
REMARK  136  A    between atoms: _315  and  _316
REMARK  137  A    between atoms: _315  and  _318
REMARK  138  A    between atoms: _318  and  _319
REMARK  139  A    between atoms: _324  and  _325
REMARK  140  A    between atoms: _327  and  _329
REMARK  141  A    between atoms: _329  and  _330
REMARK  142  A    between atoms: _329  and  _332
REMARK  143  A    between atoms: _332  and  _333
REMARK  144  A    between atoms: _338  and  _340
REMARK  145  A    between atoms: _340  and  _341
REMARK  146  A    between atoms: _340  and  _343
REMARK  147  A    between atoms: _343  and  _344
REMARK  148  A    between atoms: _348  and  _349
REMARK  149  A    between atoms: _354  and  _356
REMARK  150  A    between atoms: _356  and  _357
REMARK  151  A    between atoms: _356  and  _359
REMARK  152  A    between atoms: _359  and  _360
REMARK  153  A    between atoms: _362  and  _364
REMARK  154  A    between atoms: _364  and  _365
REMARK  155  A    between atoms: _364  and  _367
REMARK  156  A    between atoms: _370  and  _372
REMARK  157  A    between atoms: _372  and  _373
REMARK  158  A    between atoms: _372  and  _375
REMARK  159  A    between atoms: _375  and  _376
REMARK  160  A    between atoms: _379  and  _381
REMARK  161  A    between atoms: _381  and  _382
REMARK  162  A    between atoms: _381  and  _384
REMARK  163  A    between atoms: _384  and  _385
REMARK  164  A    between atoms: _390  and  _392
REMARK  165  A    between atoms: _392  and  _393
REMARK  166  A    between atoms: _392  and  _395
REMARK  167  A    between atoms: _395  and  _396
REMARK  168  A    between atoms: _399  and  _401
REMARK  169  A    between atoms: _401  and  _402
REMARK  170  A    between atoms: _401  and  _404
REMARK  171  A    between atoms: _404  and  _405
REMARK  172  A    between atoms: _405  and  _406
REMARK  173  A    between atoms: _409  and  _411
REMARK  174  A    between atoms: _411  and  _412
REMARK  175  A    between atoms: _411  and  _414
REMARK  176  A    between atoms: _414  and  _415
REMARK  177  A    between atoms: _415  and  _416
REMARK  178  A    between atoms: _421  and  _423
REMARK  179  A    between atoms: _423  and  _424
REMARK  180  A    between atoms: _423  and  _426
REMARK  181  A    between atoms: _426  and  _427
REMARK  182  A    between atoms: _430  and  _432
REMARK  183  A    between atoms: _432  and  _433
REMARK  184  A    between atoms: _432  and  _435
REMARK  185  A    between atoms: _435  and  _436
REMARK  186  A    between atoms: _441  and  _442
REMARK  187  A    between atoms: _444  and  _446
REMARK  188  A    between atoms: _446  and  _447
REMARK  189  A    between atoms: _446  and  _449
REMARK  190  A    between atoms: _449  and  _450
REMARK  191  A    between atoms: _453  and  _455
REMARK  192  A    between atoms: _455  and  _456
REMARK  193  A    between atoms: _455  and  _458
REMARK  194  A    between atoms: _461  and  _463
REMARK  195  A    between atoms: _463  and  _464
REMARK  196  A    between atoms: _463  and  _466
REMARK  197  A    between atoms: _466  and  _467
REMARK  198  A    between atoms: _471  and  _472
REMARK  199  A    between atoms: _477  and  _479
REMARK  200  A    between atoms: _479  and  _480
REMARK  201  A    between atoms: _479  and  _482
REMARK  202  A    between atoms: _485  and  _487
REMARK  203  A    between atoms: _487  and  _488
REMARK  204  A    between atoms: _487  and  _490
REMARK  205  A    between atoms: _490  and  _491
REMARK  206  A    between atoms: _494  and  _496
REMARK  207  A    between atoms: _496  and  _497
REMARK  208  A    between atoms: _496  and  _499
REMARK  209  A    between atoms: _499  and  _500
REMARK  210  A    between atoms: _503  and  _505
REMARK  211  A    between atoms: _505  and  _506
REMARK  212  A    between atoms: _505  and  _508
REMARK  213  A    between atoms: _508  and  _509
REMARK  214  A    between atoms: _512  and  _514
REMARK  215  A    between atoms: _514  and  _515
REMARK  216  A    between atoms: _514  and  _517
REMARK  217  A    between atoms: _517  and  _518
REMARK  218  A    between atoms: _523  and  _525
REMARK  219  A    between atoms: _525  and  _526
REMARK  220  A    between atoms: _525  and  _528
REMARK  221  A    between atoms: _530  and  _532
REMARK  222  A    between atoms: _532  and  _533
REMARK  223  A    between atoms: _532  and  _535
REMARK  224  A    between atoms: _535  and  _536
REMARK  225  A    between atoms: _542  and  _544
REMARK  226  A    between atoms: _544  and  _545
REMARK  227  A    between atoms: _544  and  _547
REMARK  228  A    between atoms: _550  and  _552
REMARK  229  A    between atoms: _552  and  _553
REMARK  230  A    between atoms: _552  and  _555
REMARK  231  A    between atoms: _555  and  _556
REMARK  232  A    between atoms: _559  and  _561
REMARK  233  A    between atoms: _561  and  _562
REMARK  234  A    between atoms: _561  and  _564
REMARK  235  A    between atoms: _567  and  _569
REMARK  236  A    between atoms: _569  and  _570
REMARK  237  A    between atoms: _569  and  _572
REMARK  238  A    between atoms: _572  and  _573
REMARK  239  A    between atoms: _578  and  _579
REMARK  240  A    between atoms: _581  and  _583
REMARK  241  A    between atoms: _583  and  _584
REMARK                            x       y       z     vdW  Elec       q    Type
REMARK                         _______ _______ _______ _____ _____    ______ ____
ROOT
ATOM      1  O   HOH     1       0.661  20.317  34.832  0.00  0.00    +0.000 OA
ENDROOT
TORSDOF 0
REMARK  Name = ../refined-set-2016/3e3c/3e3c_pocket.pdb
REMARK  241 active torsions:
REMARK  status: ('A' for Active; 'I' for Inactive)
REMARK    1  A    between atoms: _1  and  _3
REMARK    2  A    between atoms: _3  and  _4
REMARK    3  A    between atoms: _3  and  _6
REMARK    4  A    between atoms: _6  and  _7
REMARK    5  A    between atoms: _9  and  _11
REMARK    6  A    between atoms: _11  and  _12
REMARK    7  A    between atoms: _11  and  _14
REMARK    8  A    between atoms: _14  and  _15
REMARK    9  A    between atoms: _15  and  _16
REMARK   10  A    between atoms: _18  and  _20
REMARK   11  A    between atoms: _20  and  _21
REMARK   12  A    between atoms: _20  and  _23
REMARK   13  A    between atoms: _23  and  _24
REMARK   14  A    between atoms: _27  and  _29
REMARK   15  A    between atoms: _29  and  _30
REMARK   16  A    between atoms: _29  and  _32
REMARK   17  A    between atoms: _32  and  _33
REMARK   18  A    between atoms: _36  and  _38
REMARK   19  A    between atoms: _38  and  _39
REMARK   20  A    between atoms: _38  and  _41
REMARK   21  A    between atoms: _41  and  _42
REMARK   22  A    between atoms: _48  and  _50
REMARK   23  A    between atoms: _50  and  _51
REMARK   24  A    between atoms: _50  and  _53
REMARK   25  A    between atoms: _53  and  _54
REMARK   26  A    between atoms: _57  and  _59
REMARK   27  A    between atoms: _59  and  _60
REMARK   28  A    between atoms: _59  and  _62
REMARK   29  A    between atoms: _62  and  _63
REMARK   30  A    between atoms: _65  and  _67
REMARK   31  A    between atoms: _67  and  _68
REMARK   32  A    between atoms: _67  and  _70
REMARK   33  A    between atoms: _70  and  _71
REMARK   34  A    between atoms: _73  and  _75
REMARK   35  A    between atoms: _75  and  _76
REMARK   36  A    between atoms: _75  and  _78
REMARK   37  A    between atoms: _80  and  _82
REMARK   38  A    between atoms: _82  and  _83
REMARK   39  A    between atoms: _85  and  _87
REMARK   40  A    between atoms: _87  and  _88
REMARK   41  A    between atoms: _87  and  _90
REMARK   42  A    between atoms: _90  and  _91
REMARK   43  A    between atoms: _91  and  _92
REMARK   44  A    between atoms: _95  and  _97
REMARK   45  A    between atoms: _97  and  _98
REMARK   46  A    between atoms: _100  and  _102
REMARK   47  A    between atoms: _102  and  _103
REMARK   48  A    between atoms: _102  and  _105
REMARK   49  A    between atoms: _105  and  _106
REMARK   50  A    between atoms: _109  and  _111
REMARK   51  A    between atoms: _111  and  _112
REMARK   52  A    between atoms: _111  and  _114
REMARK   53  A    between atoms: _114  and  _115
REMARK   54  A    between atoms: _118  and  _120
REMARK   55  A    between atoms: _120  and  _121
REMARK   56  A    between atoms: _120  and  _123
REMARK   57  A    between atoms: _123  and  _124
REMARK   58  A    between atoms: _127  and  _129
REMARK   59  A    between atoms: _129  and  _130
REMARK   60  A    between atoms: _129  and  _132
REMARK   61  A    between atoms: _132  and  _133
REMARK   62  A    between atoms: _133  and  _134
REMARK   63  A    between atoms: _134  and  _135
REMARK   64  A    between atoms: _135  and  _136
REMARK   65  A    between atoms: _140  and  _142
REMARK   66  A    between atoms: _142  and  _143
REMARK   67  A    between atoms: _142  and  _145
REMARK   68  A    between atoms: _145  and  _146
REMARK   69  A    between atoms: _149  and  _151
REMARK   70  A    between atoms: _151  and  _152
REMARK   71  A    between atoms: _151  and  _154
REMARK   72  A    between atoms: _154  and  _155
REMARK   73  A    between atoms: _158  and  _160
REMARK   74  A    between atoms: _160  and  _161
REMARK   75  A    between atoms: _163  and  _165
REMARK   76  A    between atoms: _165  and  _166
REMARK   77  A    between atoms: _168  and  _170
REMARK   78  A    between atoms: _170  and  _171
REMARK   79  A    between atoms: _170  and  _173
REMARK   80  A    between atoms: _173  and  _174
REMARK   81  A    between atoms: _177  and  _179
REMARK   82  A    between atoms: _179  and  _180
REMARK   83  A    between atoms: _179  and  _182
REMARK   84  A    between atoms: _182  and  _183
REMARK   85  A    between atoms: _186  and  _188
REMARK   86  A    between atoms: _188  and  _189
REMARK   87  A    between atoms: _192  and  _194
REMARK   88  A    between atoms: _194  and  _195
REMARK   89  A    between atoms: _194  and  _197
REMARK   90  A    between atoms: _197  and  _198
REMARK   91  A    between atoms: _200  and  _202
REMARK   92  A    between atoms: _202  and  _203
REMARK   93  A    between atoms: _202  and  _205
REMARK   94  A    between atoms: _208  and  _210
REMARK   95  A    between atoms: _210  and  _211
REMARK   96  A    between atoms: _210  and  _213
REMARK   97  A    between atoms: _213  and  _214
REMARK   98  A    between atoms: _219  and  _220
REMARK   99  A    between atoms: _222  and  _224
REMARK  100  A    between atoms: _224  and  _225
REMARK  101  A    between atoms: _224  and  _227
REMARK  102  A    between atoms: _227  and  _228
REMARK  103  A    between atoms: _228  and  _229
REMARK  104  A    between atoms: _234  and  _236
REMARK  105  A    between atoms: _236  and  _237
REMARK  106  A    between atoms: _239  and  _241
REMARK  107  A    between atoms: _241  and  _242
REMARK  108  A    between atoms: _241  and  _244
REMARK  109  A    between atoms: _244  and  _245
REMARK  110  A    between atoms: _248  and  _250
REMARK  111  A    between atoms: _250  and  _251
REMARK  112  A    between atoms: _250  and  _253
REMARK  113  A    between atoms: _253  and  _254
REMARK  114  A    between atoms: _257  and  _259
REMARK  115  A    between atoms: _259  and  _260
REMARK  116  A    between atoms: _259  and  _262
REMARK  117  A    between atoms: _262  and  _263
REMARK  118  A    between atoms: _266  and  _268
REMARK  119  A    between atoms: _268  and  _269
REMARK  120  A    between atoms: _268  and  _271
REMARK  121  A    between atoms: _271  and  _272
REMARK  122  A    between atoms: _277  and  _279
REMARK  123  A    between atoms: _279  and  _280
REMARK  124  A    between atoms: _279  and  _282
REMARK  125  A    between atoms: _285  and  _287
REMARK  126  A    between atoms: _287  and  _288
REMARK  127  A    between atoms: _287  and  _290
REMARK  128  A    between atoms: _290  and  _291
REMARK  129  A    between atoms: _296  and  _298
REMARK  130  A    between atoms: _298  and  _299
REMARK  131  A    between atoms: _298  and  _301
REMARK  132  A    between atoms: _301  and  _302
REMARK  133  A    between atoms: _302  and  _303
REMARK  134  A    between atoms: _303  and  _304
REMARK  135  A    between atoms: _313  and  _315
REMARK  136  A    between atoms: _315  and  _316
REMARK  137  A    between atoms: _315  and  _318
REMARK  138  A    between atoms: _318  and  _319
REMARK  139  A    between atoms: _324  and  _325
REMARK  140  A    between atoms: _327  and  _329
REMARK  141  A    between atoms: _329  and  _330
REMARK  142  A    between atoms: _329  and  _332
REMARK  143  A    between atoms: _332  and  _333
REMARK  144  A    between atoms: _338  and  _340
REMARK  145  A    between atoms: _340  and  _341
REMARK  146  A    between atoms: _340  and  _343
REMARK  147  A    between atoms: _343  and  _344
REMARK  148  A    between atoms: _348  and  _349
REMARK  149  A    between atoms: _354  and  _356
REMARK  150  A    between atoms: _356  and  _357
REMARK  151  A    between atoms: _356  and  _359
REMARK  152  A    between atoms: _359  and  _360
REMARK  153  A    between atoms: _362  and  _364
REMARK  154  A    between atoms: _364  and  _365
REMARK  155  A    between atoms: _364  and  _367
REMARK  156  A    between atoms: _370  and  _372
REMARK  157  A    between atoms: _372  and  _373
REMARK  158  A    between atoms: _372  and  _375
REMARK  159  A    between atoms: _375  and  _376
REMARK  160  A    between atoms: _379  and  _381
REMARK  161  A    between atoms: _381  and  _382
REMARK  162  A    between atoms: _381  and  _384
REMARK  163  A    between atoms: _384  and  _385
REMARK  164  A    between atoms: _390  and  _392
REMARK  165  A    between atoms: _392  and  _393
REMARK  166  A    between atoms: _392  and  _395
REMARK  167  A    between atoms: _395  and  _396
REMARK  168  A    between atoms: _399  and  _401
REMARK  169  A    between atoms: _401  and  _402
REMARK  170  A    between atoms: _401  and  _404
REMARK  171  A    between atoms: _404  and  _405
REMARK  172  A    between atoms: _405  and  _406
REMARK  173  A    between atoms: _409  and  _411
REMARK  174  A    between atoms: _411  and  _412
REMARK  175  A    between atoms: _411  and  _414
REMARK  176  A    between atoms: _414  and  _415
REMARK  177  A    between atoms: _415  and  _416
REMARK  178  A    between atoms: _421  and  _423
REMARK  179  A    between atoms: _423  and  _424
REMARK  180  A    between atoms: _423  and  _426
REMARK  181  A    between atoms: _426  and  _427
REMARK  182  A    between atoms: _430  and  _432
REMARK  183  A    between atoms: _432  and  _433
REMARK  184  A    between atoms: _432  and  _435
REMARK  185  A    between atoms: _435  and  _436
REMARK  186  A    between atoms: _441  and  _442
REMARK  187  A    between atoms: _444  and  _446
REMARK  188  A    between atoms: _446  and  _447
REMARK  189  A    between atoms: _446  and  _449
REMARK  190  A    between atoms: _449  and  _450
REMARK  191  A    between atoms: _453  and  _455
REMARK  192  A    between atoms: _455  and  _456
REMARK  193  A    between atoms: _455  and  _458
REMARK  194  A    between atoms: _461  and  _463
REMARK  195  A    between atoms: _463  and  _464
REMARK  196  A    between atoms: _463  and  _466
REMARK  197  A    between atoms: _466  and  _467
REMARK  198  A    between atoms: _471  and  _472
REMARK  199  A    between atoms: _477  and  _479
REMARK  200  A    between atoms: _479  and  _480
REMARK  201  A    between atoms: _479  and  _482
REMARK  202  A    between atoms: _485  and  _487
REMARK  203  A    between atoms: _487  and  _488
REMARK  204  A    between atoms: _487  and  _490
REMARK  205  A    between atoms: _490  and  _491
REMARK  206  A    between atoms: _494  and  _496
REMARK  207  A    between atoms: _496  and  _497
REMARK  208  A    between atoms: _496  and  _499
REMARK  209  A    between atoms: _499  and  _500
REMARK  210  A    between atoms: _503  and  _505
REMARK  211  A    between atoms: _505  and  _506
REMARK  212  A    between atoms: _505  and  _508
REMARK  213  A    between atoms: _508  and  _509
REMARK  214  A    between atoms: _512  and  _514
REMARK  215  A    between atoms: _514  and  _515
REMARK  216  A    between atoms: _514  and  _517
REMARK  217  A    between atoms: _517  and  _518
REMARK  218  A    between atoms: _523  and  _525
REMARK  219  A    between atoms: _525  and  _526
REMARK  220  A    between atoms: _525  and  _528
REMARK  221  A    between atoms: _530  and  _532
REMARK  222  A    between atoms: _532  and  _533
REMARK  223  A    between atoms: _532  and  _535
REMARK  224  A    between atoms: _535  and  _536
REMARK  225  A    between atoms: _542  and  _544
REMARK  226  A    between atoms: _544  and  _545
REMARK  227  A    between atoms: _544  and  _547
REMARK  228  A    between atoms: _550  and  _552
REMARK  229  A    between atoms: _552  and  _553
REMARK  230  A    between atoms: _552  and  _555
REMARK  231  A    between atoms: _555  and  _556
REMARK  232  A    between atoms: _559  and  _561
REMARK  233  A    between atoms: _561  and  _562
REMARK  234  A    between atoms: _561  and  _564
REMARK  235  A    between atoms: _567  and  _569
REMARK  236  A    between atoms: _569  and  _570
REMARK  237  A    between atoms: _569  and  _572
REMARK  238  A    between atoms: _572  and  _573
REMARK  239  A    between atoms: _578  and  _579
REMARK  240  A    between atoms: _581  and  _583
REMARK  241  A    between atoms: _583  and  _584
REMARK                            x       y       z     vdW  Elec       q    Type
REMARK                         _______ _______ _______ _____ _____    ______ ____
ROOT
ATOM      1  O   HOH     1       4.119  32.499  33.853  0.00  0.00    +0.000 OA
ENDROOT
TORSDOF 0
REMARK  Name = ../refined-set-2016/3e3c/3e3c_pocket.pdb
REMARK  241 active torsions:
REMARK  status: ('A' for Active; 'I' for Inactive)
REMARK    1  A    between atoms: _1  and  _3
REMARK    2  A    between atoms: _3  and  _4
REMARK    3  A    between atoms: _3  and  _6
REMARK    4  A    between atoms: _6  and  _7
REMARK    5  A    between atoms: _9  and  _11
REMARK    6  A    between atoms: _11  and  _12
REMARK    7  A    between atoms: _11  and  _14
REMARK    8  A    between atoms: _14  and  _15
REMARK    9  A    between atoms: _15  and  _16
REMARK   10  A    between atoms: _18  and  _20
REMARK   11  A    between atoms: _20  and  _21
REMARK   12  A    between atoms: _20  and  _23
REMARK   13  A    between atoms: _23  and  _24
REMARK   14  A    between atoms: _27  and  _29
REMARK   15  A    between atoms: _29  and  _30
REMARK   16  A    between atoms: _29  and  _32
REMARK   17  A    between atoms: _32  and  _33
REMARK   18  A    between atoms: _36  and  _38
REMARK   19  A    between atoms: _38  and  _39
REMARK   20  A    between atoms: _38  and  _41
REMARK   21  A    between atoms: _41  and  _42
REMARK   22  A    between atoms: _48  and  _50
REMARK   23  A    between atoms: _50  and  _51
REMARK   24  A    between atoms: _50  and  _53
REMARK   25  A    between atoms: _53  and  _54
REMARK   26  A    between atoms: _57  and  _59
REMARK   27  A    between atoms: _59  and  _60
REMARK   28  A    between atoms: _59  and  _62
REMARK   29  A    between atoms: _62  and  _63
REMARK   30  A    between atoms: _65  and  _67
REMARK   31  A    between atoms: _67  and  _68
REMARK   32  A    between atoms: _67  and  _70
REMARK   33  A    between atoms: _70  and  _71
REMARK   34  A    between atoms: _73  and  _75
REMARK   35  A    between atoms: _75  and  _76
REMARK   36  A    between atoms: _75  and  _78
REMARK   37  A    between atoms: _80  and  _82
REMARK   38  A    between atoms: _82  and  _83
REMARK   39  A    between atoms: _85  and  _87
REMARK   40  A    between atoms: _87  and  _88
REMARK   41  A    between atoms: _87  and  _90
REMARK   42  A    between atoms: _90  and  _91
REMARK   43  A    between atoms: _91  and  _92
REMARK   44  A    between atoms: _95  and  _97
REMARK   45  A    between atoms: _97  and  _98
REMARK   46  A    between atoms: _100  and  _102
REMARK   47  A    between atoms: _102  and  _103
REMARK   48  A    between atoms: _102  and  _105
REMARK   49  A    between atoms: _105  and  _106
REMARK   50  A    between atoms: _109  and  _111
REMARK   51  A    between atoms: _111  and  _112
REMARK   52  A    between atoms: _111  and  _114
REMARK   53  A    between atoms: _114  and  _115
REMARK   54  A    between atoms: _118  and  _120
REMARK   55  A    between atoms: _120  and  _121
REMARK   56  A    between atoms: _120  and  _123
REMARK   57  A    between atoms: _123  and  _124
REMARK   58  A    between atoms: _127  and  _129
REMARK   59  A    between atoms: _129  and  _130
REMARK   60  A    between atoms: _129  and  _132
REMARK   61  A    between atoms: _132  and  _133
REMARK   62  A    between atoms: _133  and  _134
REMARK   63  A    between atoms: _134  and  _135
REMARK   64  A    between atoms: _135  and  _136
REMARK   65  A    between atoms: _140  and  _142
REMARK   66  A    between atoms: _142  and  _143
REMARK   67  A    between atoms: _142  and  _145
REMARK   68  A    between atoms: _145  and  _146
REMARK   69  A    between atoms: _149  and  _151
REMARK   70  A    between atoms: _151  and  _152
REMARK   71  A    between atoms: _151  and  _154
REMARK   72  A    between atoms: _154  and  _155
REMARK   73  A    between atoms: _158  and  _160
REMARK   74  A    between atoms: _160  and  _161
REMARK   75  A    between atoms: _163  and  _165
REMARK   76  A    between atoms: _165  and  _166
REMARK   77  A    between atoms: _168  and  _170
REMARK   78  A    between atoms: _170  and  _171
REMARK   79  A    between atoms: _170  and  _173
REMARK   80  A    between atoms: _173  and  _174
REMARK   81  A    between atoms: _177  and  _179
REMARK   82  A    between atoms: _179  and  _180
REMARK   83  A    between atoms: _179  and  _182
REMARK   84  A    between atoms: _182  and  _183
REMARK   85  A    between atoms: _186  and  _188
REMARK   86  A    between atoms: _188  and  _189
REMARK   87  A    between atoms: _192  and  _194
REMARK   88  A    between atoms: _194  and  _195
REMARK   89  A    between atoms: _194  and  _197
REMARK   90  A    between atoms: _197  and  _198
REMARK   91  A    between atoms: _200  and  _202
REMARK   92  A    between atoms: _202  and  _203
REMARK   93  A    between atoms: _202  and  _205
REMARK   94  A    between atoms: _208  and  _210
REMARK   95  A    between atoms: _210  and  _211
REMARK   96  A    between atoms: _210  and  _213
REMARK   97  A    between atoms: _213  and  _214
REMARK   98  A    between atoms: _219  and  _220
REMARK   99  A    between atoms: _222  and  _224
REMARK  100  A    between atoms: _224  and  _225
REMARK  101  A    between atoms: _224  and  _227
REMARK  102  A    between atoms: _227  and  _228
REMARK  103  A    between atoms: _228  and  _229
REMARK  104  A    between atoms: _234  and  _236
REMARK  105  A    between atoms: _236  and  _237
REMARK  106  A    between atoms: _239  and  _241
REMARK  107  A    between atoms: _241  and  _242
REMARK  108  A    between atoms: _241  and  _244
REMARK  109  A    between atoms: _244  and  _245
REMARK  110  A    between atoms: _248  and  _250
REMARK  111  A    between atoms: _250  and  _251
REMARK  112  A    between atoms: _250  and  _253
REMARK  113  A    between atoms: _253  and  _254
REMARK  114  A    between atoms: _257  and  _259
REMARK  115  A    between atoms: _259  and  _260
REMARK  116  A    between atoms: _259  and  _262
REMARK  117  A    between atoms: _262  and  _263
REMARK  118  A    between atoms: _266  and  _268
REMARK  119  A    between atoms: _268  and  _269
REMARK  120  A    between atoms: _268  and  _271
REMARK  121  A    between atoms: _271  and  _272
REMARK  122  A    between atoms: _277  and  _279
REMARK  123  A    between atoms: _279  and  _280
REMARK  124  A    between atoms: _279  and  _282
REMARK  125  A    between atoms: _285  and  _287
REMARK  126  A    between atoms: _287  and  _288
REMARK  127  A    between atoms: _287  and  _290
REMARK  128  A    between atoms: _290  and  _291
REMARK  129  A    between atoms: _296  and  _298
REMARK  130  A    between atoms: _298  and  _299
REMARK  131  A    between atoms: _298  and  _301
REMARK  132  A    between atoms: _301  and  _302
REMARK  133  A    between atoms: _302  and  _303
REMARK  134  A    between atoms: _303  and  _304
REMARK  135  A    between atoms: _313  and  _315
REMARK  136  A    between atoms: _315  and  _316
REMARK  137  A    between atoms: _315  and  _318
REMARK  138  A    between atoms: _318  and  _319
REMARK  139  A    between atoms: _324  and  _325
REMARK  140  A    between atoms: _327  and  _329
REMARK  141  A    between atoms: _329  and  _330
REMARK  142  A    between atoms: _329  and  _332
REMARK  143  A    between atoms: _332  and  _333
REMARK  144  A    between atoms: _338  and  _340
REMARK  145  A    between atoms: _340  and  _341
REMARK  146  A    between atoms: _340  and  _343
REMARK  147  A    between atoms: _343  and  _344
REMARK  148  A    between atoms: _348  and  _349
REMARK  149  A    between atoms: _354  and  _356
REMARK  150  A    between atoms: _356  and  _357
REMARK  151  A    between atoms: _356  and  _359
REMARK  152  A    between atoms: _359  and  _360
REMARK  153  A    between atoms: _362  and  _364
REMARK  154  A    between atoms: _364  and  _365
REMARK  155  A    between atoms: _364  and  _367
REMARK  156  A    between atoms: _370  and  _372
REMARK  157  A    between atoms: _372  and  _373
REMARK  158  A    between atoms: _372  and  _375
REMARK  159  A    between atoms: _375  and  _376
REMARK  160  A    between atoms: _379  and  _381
REMARK  161  A    between atoms: _381  and  _382
REMARK  162  A    between atoms: _381  and  _384
REMARK  163  A    between atoms: _384  and  _385
REMARK  164  A    between atoms: _390  and  _392
REMARK  165  A    between atoms: _392  and  _393
REMARK  166  A    between atoms: _392  and  _395
REMARK  167  A    between atoms: _395  and  _396
REMARK  168  A    between atoms: _399  and  _401
REMARK  169  A    between atoms: _401  and  _402
REMARK  170  A    between atoms: _401  and  _404
REMARK  171  A    between atoms: _404  and  _405
REMARK  172  A    between atoms: _405  and  _406
REMARK  173  A    between atoms: _409  and  _411
REMARK  174  A    between atoms: _411  and  _412
REMARK  175  A    between atoms: _411  and  _414
REMARK  176  A    between atoms: _414  and  _415
REMARK  177  A    between atoms: _415  and  _416
REMARK  178  A    between atoms: _421  and  _423
REMARK  179  A    between atoms: _423  and  _424
REMARK  180  A    between atoms: _423  and  _426
REMARK  181  A    between atoms: _426  and  _427
REMARK  182  A    between atoms: _430  and  _432
REMARK  183  A    between atoms: _432  and  _433
REMARK  184  A    between atoms: _432  and  _435
REMARK  185  A    between atoms: _435  and  _436
REMARK  186  A    between atoms: _441  and  _442
REMARK  187  A    between atoms: _444  and  _446
REMARK  188  A    between atoms: _446  and  _447
REMARK  189  A    between atoms: _446  and  _449
REMARK  190  A    between atoms: _449  and  _450
REMARK  191  A    between atoms: _453  and  _455
REMARK  192  A    between atoms: _455  and  _456
REMARK  193  A    between atoms: _455  and  _458
REMARK  194  A    between atoms: _461  and  _463
REMARK  195  A    between atoms: _463  and  _464
REMARK  196  A    between atoms: _463  and  _466
REMARK  197  A    between atoms: _466  and  _467
REMARK  198  A    between atoms: _471  and  _472
REMARK  199  A    between atoms: _477  and  _479
REMARK  200  A    between atoms: _479  and  _480
REMARK  201  A    between atoms: _479  and  _482
REMARK  202  A    between atoms: _485  and  _487
REMARK  203  A    between atoms: _487  and  _488
REMARK  204  A    between atoms: _487  and  _490
REMARK  205  A    between atoms: _490  and  _491
REMARK  206  A    between atoms: _494  and  _496
REMARK  207  A    between atoms: _496  and  _497
REMARK  208  A    between atoms: _496  and  _499
REMARK  209  A    between atoms: _499  and  _500
REMARK  210  A    between atoms: _503  and  _505
REMARK  211  A    between atoms: _505  and  _506
REMARK  212  A    between atoms: _505  and  _508
REMARK  213  A    between atoms: _508  and  _509
REMARK  214  A    between atoms: _512  and  _514
REMARK  215  A    between atoms: _514  and  _515
REMARK  216  A    between atoms: _514  and  _517
REMARK  217  A    between atoms: _517  and  _518
REMARK  218  A    between atoms: _523  and  _525
REMARK  219  A    between atoms: _525  and  _526
REMARK  220  A    between atoms: _525  and  _528
REMARK  221  A    between atoms: _530  and  _532
REMARK  222  A    between atoms: _532  and  _533
REMARK  223  A    between atoms: _532  and  _535
REMARK  224  A    between atoms: _535  and  _536
REMARK  225  A    between atoms: _542  and  _544
REMARK  226  A    between atoms: _544  and  _545
REMARK  227  A    between atoms: _544  and  _547
REMARK  228  A    between atoms: _550  and  _552
REMARK  229  A    between atoms: _552  and  _553
REMARK  230  A    between atoms: _552  and  _555
REMARK  231  A    between atoms: _555  and  _556
REMARK  232  A    between atoms: _559  and  _561
REMARK  233  A    between atoms: _561  and  _562
REMARK  234  A    between atoms: _561  and  _564
REMARK  235  A    between atoms: _567  and  _569
REMARK  236  A    between atoms: _569  and  _570
REMARK  237  A    between atoms: _569  and  _572
REMARK  238  A    between atoms: _572  and  _573
REMARK  239  A    between atoms: _578  and  _579
REMARK  240  A    between atoms: _581  and  _583
REMARK  241  A    between atoms: _583  and  _584
REMARK                            x       y       z     vdW  Elec       q    Type
REMARK                         _______ _______ _______ _____ _____    ______ ____
ROOT
ATOM      1  O   HOH     1      -1.768  30.718  31.666  0.00  0.00    +0.000 OA
ENDROOT
TORSDOF 0
REMARK  Name = ../refined-set-2016/3e3c/3e3c_pocket.pdb
REMARK  241 active torsions:
REMARK  status: ('A' for Active; 'I' for Inactive)
REMARK    1  A    between atoms: _1  and  _3
REMARK    2  A    between atoms: _3  and  _4
REMARK    3  A    between atoms: _3  and  _6
REMARK    4  A    between atoms: _6  and  _7
REMARK    5  A    between atoms: _9  and  _11
REMARK    6  A    between atoms: _11  and  _12
REMARK    7  A    between atoms: _11  and  _14
REMARK    8  A    between atoms: _14  and  _15
REMARK    9  A    between atoms: _15  and  _16
REMARK   10  A    between atoms: _18  and  _20
REMARK   11  A    between atoms: _20  and  _21
REMARK   12  A    between atoms: _20  and  _23
REMARK   13  A    between atoms: _23  and  _24
REMARK   14  A    between atoms: _27  and  _29
REMARK   15  A    between atoms: _29  and  _30
REMARK   16  A    between atoms: _29  and  _32
REMARK   17  A    between atoms: _32  and  _33
REMARK   18  A    between atoms: _36  and  _38
REMARK   19  A    between atoms: _38  and  _39
REMARK   20  A    between atoms: _38  and  _41
REMARK   21  A    between atoms: _41  and  _42
REMARK   22  A    between atoms: _48  and  _50
REMARK   23  A    between atoms: _50  and  _51
REMARK   24  A    between atoms: _50  and  _53
REMARK   25  A    between atoms: _53  and  _54
REMARK   26  A    between atoms: _57  and  _59
REMARK   27  A    between atoms: _59  and  _60
REMARK   28  A    between atoms: _59  and  _62
REMARK   29  A    between atoms: _62  and  _63
REMARK   30  A    between atoms: _65  and  _67
REMARK   31  A    between atoms: _67  and  _68
REMARK   32  A    between atoms: _67  and  _70
REMARK   33  A    between atoms: _70  and  _71
REMARK   34  A    between atoms: _73  and  _75
REMARK   35  A    between atoms: _75  and  _76
REMARK   36  A    between atoms: _75  and  _78
REMARK   37  A    between atoms: _80  and  _82
REMARK   38  A    between atoms: _82  and  _83
REMARK   39  A    between atoms: _85  and  _87
REMARK   40  A    between atoms: _87  and  _88
REMARK   41  A    between atoms: _87  and  _90
REMARK   42  A    between atoms: _90  and  _91
REMARK   43  A    between atoms: _91  and  _92
REMARK   44  A    between atoms: _95  and  _97
REMARK   45  A    between atoms: _97  and  _98
REMARK   46  A    between atoms: _100  and  _102
REMARK   47  A    between atoms: _102  and  _103
REMARK   48  A    between atoms: _102  and  _105
REMARK   49  A    between atoms: _105  and  _106
REMARK   50  A    between atoms: _109  and  _111
REMARK   51  A    between atoms: _111  and  _112
REMARK   52  A    between atoms: _111  and  _114
REMARK   53  A    between atoms: _114  and  _115
REMARK   54  A    between atoms: _118  and  _120
REMARK   55  A    between atoms: _120  and  _121
REMARK   56  A    between atoms: _120  and  _123
REMARK   57  A    between atoms: _123  and  _124
REMARK   58  A    between atoms: _127  and  _129
REMARK   59  A    between atoms: _129  and  _130
REMARK   60  A    between atoms: _129  and  _132
REMARK   61  A    between atoms: _132  and  _133
REMARK   62  A    between atoms: _133  and  _134
REMARK   63  A    between atoms: _134  and  _135
REMARK   64  A    between atoms: _135  and  _136
REMARK   65  A    between atoms: _140  and  _142
REMARK   66  A    between atoms: _142  and  _143
REMARK   67  A    between atoms: _142  and  _145
REMARK   68  A    between atoms: _145  and  _146
REMARK   69  A    between atoms: _149  and  _151
REMARK   70  A    between atoms: _151  and  _152
REMARK   71  A    between atoms: _151  and  _154
REMARK   72  A    between atoms: _154  and  _155
REMARK   73  A    between atoms: _158  and  _160
REMARK   74  A    between atoms: _160  and  _161
REMARK   75  A    between atoms: _163  and  _165
REMARK   76  A    between atoms: _165  and  _166
REMARK   77  A    between atoms: _168  and  _170
REMARK   78  A    between atoms: _170  and  _171
REMARK   79  A    between atoms: _170  and  _173
REMARK   80  A    between atoms: _173  and  _174
REMARK   81  A    between atoms: _177  and  _179
REMARK   82  A    between atoms: _179  and  _180
REMARK   83  A    between atoms: _179  and  _182
REMARK   84  A    between atoms: _182  and  _183
REMARK   85  A    between atoms: _186  and  _188
REMARK   86  A    between atoms: _188  and  _189
REMARK   87  A    between atoms: _192  and  _194
REMARK   88  A    between atoms: _194  and  _195
REMARK   89  A    between atoms: _194  and  _197
REMARK   90  A    between atoms: _197  and  _198
REMARK   91  A    between atoms: _200  and  _202
REMARK   92  A    between atoms: _202  and  _203
REMARK   93  A    between atoms: _202  and  _205
REMARK   94  A    between atoms: _208  and  _210
REMARK   95  A    between atoms: _210  and  _211
REMARK   96  A    between atoms: _210  and  _213
REMARK   97  A    between atoms: _213  and  _214
REMARK   98  A    between atoms: _219  and  _220
REMARK   99  A    between atoms: _222  and  _224
REMARK  100  A    between atoms: _224  and  _225
REMARK  101  A    between atoms: _224  and  _227
REMARK  102  A    between atoms: _227  and  _228
REMARK  103  A    between atoms: _228  and  _229
REMARK  104  A    between atoms: _234  and  _236
REMARK  105  A    between atoms: _236  and  _237
REMARK  106  A    between atoms: _239  and  _241
REMARK  107  A    between atoms: _241  and  _242
REMARK  108  A    between atoms: _241  and  _244
REMARK  109  A    between atoms: _244  and  _245
REMARK  110  A    between atoms: _248  and  _250
REMARK  111  A    between atoms: _250  and  _251
REMARK  112  A    between atoms: _250  and  _253
REMARK  113  A    between atoms: _253  and  _254
REMARK  114  A    between atoms: _257  and  _259
REMARK  115  A    between atoms: _259  and  _260
REMARK  116  A    between atoms: _259  and  _262
REMARK  117  A    between atoms: _262  and  _263
REMARK  118  A    between atoms: _266  and  _268
REMARK  119  A    between atoms: _268  and  _269
REMARK  120  A    between atoms: _268  and  _271
REMARK  121  A    between atoms: _271  and  _272
REMARK  122  A    between atoms: _277  and  _279
REMARK  123  A    between atoms: _279  and  _280
REMARK  124  A    between atoms: _279  and  _282
REMARK  125  A    between atoms: _285  and  _287
REMARK  126  A    between atoms: _287  and  _288
REMARK  127  A    between atoms: _287  and  _290
REMARK  128  A    between atoms: _290  and  _291
REMARK  129  A    between atoms: _296  and  _298
REMARK  130  A    between atoms: _298  and  _299
REMARK  131  A    between atoms: _298  and  _301
REMARK  132  A    between atoms: _301  and  _302
REMARK  133  A    between atoms: _302  and  _303
REMARK  134  A    between atoms: _303  and  _304
REMARK  135  A    between atoms: _313  and  _315
REMARK  136  A    between atoms: _315  and  _316
REMARK  137  A    between atoms: _315  and  _318
REMARK  138  A    between atoms: _318  and  _319
REMARK  139  A    between atoms: _324  and  _325
REMARK  140  A    between atoms: _327  and  _329
REMARK  141  A    between atoms: _329  and  _330
REMARK  142  A    between atoms: _329  and  _332
REMARK  143  A    between atoms: _332  and  _333
REMARK  144  A    between atoms: _338  and  _340
REMARK  145  A    between atoms: _340  and  _341
REMARK  146  A    between atoms: _340  and  _343
REMARK  147  A    between atoms: _343  and  _344
REMARK  148  A    between atoms: _348  and  _349
REMARK  149  A    between atoms: _354  and  _356
REMARK  150  A    between atoms: _356  and  _357
REMARK  151  A    between atoms: _356  and  _359
REMARK  152  A    between atoms: _359  and  _360
REMARK  153  A    between atoms: _362  and  _364
REMARK  154  A    between atoms: _364  and  _365
REMARK  155  A    between atoms: _364  and  _367
REMARK  156  A    between atoms: _370  and  _372
REMARK  157  A    between atoms: _372  and  _373
REMARK  158  A    between atoms: _372  and  _375
REMARK  159  A    between atoms: _375  and  _376
REMARK  160  A    between atoms: _379  and  _381
REMARK  161  A    between atoms: _381  and  _382
REMARK  162  A    between atoms: _381  and  _384
REMARK  163  A    between atoms: _384  and  _385
REMARK  164  A    between atoms: _390  and  _392
REMARK  165  A    between atoms: _392  and  _393
REMARK  166  A    between atoms: _392  and  _395
REMARK  167  A    between atoms: _395  and  _396
REMARK  168  A    between atoms: _399  and  _401
REMARK  169  A    between atoms: _401  and  _402
REMARK  170  A    between atoms: _401  and  _404
REMARK  171  A    between atoms: _404  and  _405
REMARK  172  A    between atoms: _405  and  _406
REMARK  173  A    between atoms: _409  and  _411
REMARK  174  A    between atoms: _411  and  _412
REMARK  175  A    between atoms: _411  and  _414
REMARK  176  A    between atoms: _414  and  _415
REMARK  177  A    between atoms: _415  and  _416
REMARK  178  A    between atoms: _421  and  _423
REMARK  179  A    between atoms: _423  and  _424
REMARK  180  A    between atoms: _423  and  _426
REMARK  181  A    between atoms: _426  and  _427
REMARK  182  A    between atoms: _430  and  _432
REMARK  183  A    between atoms: _432  and  _433
REMARK  184  A    between atoms: _432  and  _435
REMARK  185  A    between atoms: _435  and  _436
REMARK  186  A    between atoms: _441  and  _442
REMARK  187  A    between atoms: _444  and  _446
REMARK  188  A    between atoms: _446  and  _447
REMARK  189  A    between atoms: _446  and  _449
REMARK  190  A    between atoms: _449  and  _450
REMARK  191  A    between atoms: _453  and  _455
REMARK  192  A    between atoms: _455  and  _456
REMARK  193  A    between atoms: _455  and  _458
REMARK  194  A    between atoms: _461  and  _463
REMARK  195  A    between atoms: _463  and  _464
REMARK  196  A    between atoms: _463  and  _466
REMARK  197  A    between atoms: _466  and  _467
REMARK  198  A    between atoms: _471  and  _472
REMARK  199  A    between atoms: _477  and  _479
REMARK  200  A    between atoms: _479  and  _480
REMARK  201  A    between atoms: _479  and  _482
REMARK  202  A    between atoms: _485  and  _487
REMARK  203  A    between atoms: _487  and  _488
REMARK  204  A    between atoms: _487  and  _490
REMARK  205  A    between atoms: _490  and  _491
REMARK  206  A    between atoms: _494  and  _496
REMARK  207  A    between atoms: _496  and  _497
REMARK  208  A    between atoms: _496  and  _499
REMARK  209  A    between atoms: _499  and  _500
REMARK  210  A    between atoms: _503  and  _505
REMARK  211  A    between atoms: _505  and  _506
REMARK  212  A    between atoms: _505  and  _508
REMARK  213  A    between atoms: _508  and  _509
REMARK  214  A    between atoms: _512  and  _514
REMARK  215  A    between atoms: _514  and  _515
REMARK  216  A    between atoms: _514  and  _517
REMARK  217  A    between atoms: _517  and  _518
REMARK  218  A    between atoms: _523  and  _525
REMARK  219  A    between atoms: _525  and  _526
REMARK  220  A    between atoms: _525  and  _528
REMARK  221  A    between atoms: _530  and  _532
REMARK  222  A    between atoms: _532  and  _533
REMARK  223  A    between atoms: _532  and  _535
REMARK  224  A    between atoms: _535  and  _536
REMARK  225  A    between atoms: _542  and  _544
REMARK  226  A    between atoms: _544  and  _545
REMARK  227  A    between atoms: _544  and  _547
REMARK  228  A    between atoms: _550  and  _552
REMARK  229  A    between atoms: _552  and  _553
REMARK  230  A    between atoms: _552  and  _555
REMARK  231  A    between atoms: _555  and  _556
REMARK  232  A    between atoms: _559  and  _561
REMARK  233  A    between atoms: _561  and  _562
REMARK  234  A    between atoms: _561  and  _564
REMARK  235  A    between atoms: _567  and  _569
REMARK  236  A    between atoms: _569  and  _570
REMARK  237  A    between atoms: _569  and  _572
REMARK  238  A    between atoms: _572  and  _573
REMARK  239  A    between atoms: _578  and  _579
REMARK  240  A    between atoms: _581  and  _583
REMARK  241  A    between atoms: _583  and  _584
REMARK                            x       y       z     vdW  Elec       q    Type
REMARK                         _______ _______ _______ _____ _____    ______ ____
ROOT
ATOM      1  O   HOH     1      -3.360  23.814  28.832  0.00  0.00    +0.000 OA
ENDROOT
TORSDOF 0
REMARK  Name = ../refined-set-2016/3e3c/3e3c_pocket.pdb
REMARK  241 active torsions:
REMARK  status: ('A' for Active; 'I' for Inactive)
REMARK    1  A    between atoms: _1  and  _3
REMARK    2  A    between atoms: _3  and  _4
REMARK    3  A    between atoms: _3  and  _6
REMARK    4  A    between atoms: _6  and  _7
REMARK    5  A    between atoms: _9  and  _11
REMARK    6  A    between atoms: _11  and  _12
REMARK    7  A    between atoms: _11  and  _14
REMARK    8  A    between atoms: _14  and  _15
REMARK    9  A    between atoms: _15  and  _16
REMARK   10  A    between atoms: _18  and  _20
REMARK   11  A    between atoms: _20  and  _21
REMARK   12  A    between atoms: _20  and  _23
REMARK   13  A    between atoms: _23  and  _24
REMARK   14  A    between atoms: _27  and  _29
REMARK   15  A    between atoms: _29  and  _30
REMARK   16  A    between atoms: _29  and  _32
REMARK   17  A    between atoms: _32  and  _33
REMARK   18  A    between atoms: _36  and  _38
REMARK   19  A    between atoms: _38  and  _39
REMARK   20  A    between atoms: _38  and  _41
REMARK   21  A    between atoms: _41  and  _42
REMARK   22  A    between atoms: _48  and  _50
REMARK   23  A    between atoms: _50  and  _51
REMARK   24  A    between atoms: _50  and  _53
REMARK   25  A    between atoms: _53  and  _54
REMARK   26  A    between atoms: _57  and  _59
REMARK   27  A    between atoms: _59  and  _60
REMARK   28  A    between atoms: _59  and  _62
REMARK   29  A    between atoms: _62  and  _63
REMARK   30  A    between atoms: _65  and  _67
REMARK   31  A    between atoms: _67  and  _68
REMARK   32  A    between atoms: _67  and  _70
REMARK   33  A    between atoms: _70  and  _71
REMARK   34  A    between atoms: _73  and  _75
REMARK   35  A    between atoms: _75  and  _76
REMARK   36  A    between atoms: _75  and  _78
REMARK   37  A    between atoms: _80  and  _82
REMARK   38  A    between atoms: _82  and  _83
REMARK   39  A    between atoms: _85  and  _87
REMARK   40  A    between atoms: _87  and  _88
REMARK   41  A    between atoms: _87  and  _90
REMARK   42  A    between atoms: _90  and  _91
REMARK   43  A    between atoms: _91  and  _92
REMARK   44  A    between atoms: _95  and  _97
REMARK   45  A    between atoms: _97  and  _98
REMARK   46  A    between atoms: _100  and  _102
REMARK   47  A    between atoms: _102  and  _103
REMARK   48  A    between atoms: _102  and  _105
REMARK   49  A    between atoms: _105  and  _106
REMARK   50  A    between atoms: _109  and  _111
REMARK   51  A    between atoms: _111  and  _112
REMARK   52  A    between atoms: _111  and  _114
REMARK   53  A    between atoms: _114  and  _115
REMARK   54  A    between atoms: _118  and  _120
REMARK   55  A    between atoms: _120  and  _121
REMARK   56  A    between atoms: _120  and  _123
REMARK   57  A    between atoms: _123  and  _124
REMARK   58  A    between atoms: _127  and  _129
REMARK   59  A    between atoms: _129  and  _130
REMARK   60  A    between atoms: _129  and  _132
REMARK   61  A    between atoms: _132  and  _133
REMARK   62  A    between atoms: _133  and  _134
REMARK   63  A    between atoms: _134  and  _135
REMARK   64  A    between atoms: _135  and  _136
REMARK   65  A    between atoms: _140  and  _142
REMARK   66  A    between atoms: _142  and  _143
REMARK   67  A    between atoms: _142  and  _145
REMARK   68  A    between atoms: _145  and  _146
REMARK   69  A    between atoms: _149  and  _151
REMARK   70  A    between atoms: _151  and  _152
REMARK   71  A    between atoms: _151  and  _154
REMARK   72  A    between atoms: _154  and  _155
REMARK   73  A    between atoms: _158  and  _160
REMARK   74  A    between atoms: _160  and  _161
REMARK   75  A    between atoms: _163  and  _165
REMARK   76  A    between atoms: _165  and  _166
REMARK   77  A    between atoms: _168  and  _170
REMARK   78  A    between atoms: _170  and  _171
REMARK   79  A    between atoms: _170  and  _173
REMARK   80  A    between atoms: _173  and  _174
REMARK   81  A    between atoms: _177  and  _179
REMARK   82  A    between atoms: _179  and  _180
REMARK   83  A    between atoms: _179  and  _182
REMARK   84  A    between atoms: _182  and  _183
REMARK   85  A    between atoms: _186  and  _188
REMARK   86  A    between atoms: _188  and  _189
REMARK   87  A    between atoms: _192  and  _194
REMARK   88  A    between atoms: _194  and  _195
REMARK   89  A    between atoms: _194  and  _197
REMARK   90  A    between atoms: _197  and  _198
REMARK   91  A    between atoms: _200  and  _202
REMARK   92  A    between atoms: _202  and  _203
REMARK   93  A    between atoms: _202  and  _205
REMARK   94  A    between atoms: _208  and  _210
REMARK   95  A    between atoms: _210  and  _211
REMARK   96  A    between atoms: _210  and  _213
REMARK   97  A    between atoms: _213  and  _214
REMARK   98  A    between atoms: _219  and  _220
REMARK   99  A    between atoms: _222  and  _224
REMARK  100  A    between atoms: _224  and  _225
REMARK  101  A    between atoms: _224  and  _227
REMARK  102  A    between atoms: _227  and  _228
REMARK  103  A    between atoms: _228  and  _229
REMARK  104  A    between atoms: _234  and  _236
REMARK  105  A    between atoms: _236  and  _237
REMARK  106  A    between atoms: _239  and  _241
REMARK  107  A    between atoms: _241  and  _242
REMARK  108  A    between atoms: _241  and  _244
REMARK  109  A    between atoms: _244  and  _245
REMARK  110  A    between atoms: _248  and  _250
REMARK  111  A    between atoms: _250  and  _251
REMARK  112  A    between atoms: _250  and  _253
REMARK  113  A    between atoms: _253  and  _254
REMARK  114  A    between atoms: _257  and  _259
REMARK  115  A    between atoms: _259  and  _260
REMARK  116  A    between atoms: _259  and  _262
REMARK  117  A    between atoms: _262  and  _263
REMARK  118  A    between atoms: _266  and  _268
REMARK  119  A    between atoms: _268  and  _269
REMARK  120  A    between atoms: _268  and  _271
REMARK  121  A    between atoms: _271  and  _272
REMARK  122  A    between atoms: _277  and  _279
REMARK  123  A    between atoms: _279  and  _280
REMARK  124  A    between atoms: _279  and  _282
REMARK  125  A    between atoms: _285  and  _287
REMARK  126  A    between atoms: _287  and  _288
REMARK  127  A    between atoms: _287  and  _290
REMARK  128  A    between atoms: _290  and  _291
REMARK  129  A    between atoms: _296  and  _298
REMARK  130  A    between atoms: _298  and  _299
REMARK  131  A    between atoms: _298  and  _301
REMARK  132  A    between atoms: _301  and  _302
REMARK  133  A    between atoms: _302  and  _303
REMARK  134  A    between atoms: _303  and  _304
REMARK  135  A    between atoms: _313  and  _315
REMARK  136  A    between atoms: _315  and  _316
REMARK  137  A    between atoms: _315  and  _318
REMARK  138  A    between atoms: _318  and  _319
REMARK  139  A    between atoms: _324  and  _325
REMARK  140  A    between atoms: _327  and  _329
REMARK  141  A    between atoms: _329  and  _330
REMARK  142  A    between atoms: _329  and  _332
REMARK  143  A    between atoms: _332  and  _333
REMARK  144  A    between atoms: _338  and  _340
REMARK  145  A    between atoms: _340  and  _341
REMARK  146  A    between atoms: _340  and  _343
REMARK  147  A    between atoms: _343  and  _344
REMARK  148  A    between atoms: _348  and  _349
REMARK  149  A    between atoms: _354  and  _356
REMARK  150  A    between atoms: _356  and  _357
REMARK  151  A    between atoms: _356  and  _359
REMARK  152  A    between atoms: _359  and  _360
REMARK  153  A    between atoms: _362  and  _364
REMARK  154  A    between atoms: _364  and  _365
REMARK  155  A    between atoms: _364  and  _367
REMARK  156  A    between atoms: _370  and  _372
REMARK  157  A    between atoms: _372  and  _373
REMARK  158  A    between atoms: _372  and  _375
REMARK  159  A    between atoms: _375  and  _376
REMARK  160  A    between atoms: _379  and  _381
REMARK  161  A    between atoms: _381  and  _382
REMARK  162  A    between atoms: _381  and  _384
REMARK  163  A    between atoms: _384  and  _385
REMARK  164  A    between atoms: _390  and  _392
REMARK  165  A    between atoms: _392  and  _393
REMARK  166  A    between atoms: _392  and  _395
REMARK  167  A    between atoms: _395  and  _396
REMARK  168  A    between atoms: _399  and  _401
REMARK  169  A    between atoms: _401  and  _402
REMARK  170  A    between atoms: _401  and  _404
REMARK  171  A    between atoms: _404  and  _405
REMARK  172  A    between atoms: _405  and  _406
REMARK  173  A    between atoms: _409  and  _411
REMARK  174  A    between atoms: _411  and  _412
REMARK  175  A    between atoms: _411  and  _414
REMARK  176  A    between atoms: _414  and  _415
REMARK  177  A    between atoms: _415  and  _416
REMARK  178  A    between atoms: _421  and  _423
REMARK  179  A    between atoms: _423  and  _424
REMARK  180  A    between atoms: _423  and  _426
REMARK  181  A    between atoms: _426  and  _427
REMARK  182  A    between atoms: _430  and  _432
REMARK  183  A    between atoms: _432  and  _433
REMARK  184  A    between atoms: _432  and  _435
REMARK  185  A    between atoms: _435  and  _436
REMARK  186  A    between atoms: _441  and  _442
REMARK  187  A    between atoms: _444  and  _446
REMARK  188  A    between atoms: _446  and  _447
REMARK  189  A    between atoms: _446  and  _449
REMARK  190  A    between atoms: _449  and  _450
REMARK  191  A    between atoms: _453  and  _455
REMARK  192  A    between atoms: _455  and  _456
REMARK  193  A    between atoms: _455  and  _458
REMARK  194  A    between atoms: _461  and  _463
REMARK  195  A    between atoms: _463  and  _464
REMARK  196  A    between atoms: _463  and  _466
REMARK  197  A    between atoms: _466  and  _467
REMARK  198  A    between atoms: _471  and  _472
REMARK  199  A    between atoms: _477  and  _479
REMARK  200  A    between atoms: _479  and  _480
REMARK  201  A    between atoms: _479  and  _482
REMARK  202  A    between atoms: _485  and  _487
REMARK  203  A    between atoms: _487  and  _488
REMARK  204  A    between atoms: _487  and  _490
REMARK  205  A    between atoms: _490  and  _491
REMARK  206  A    between atoms: _494  and  _496
REMARK  207  A    between atoms: _496  and  _497
REMARK  208  A    between atoms: _496  and  _499
REMARK  209  A    between atoms: _499  and  _500
REMARK  210  A    between atoms: _503  and  _505
REMARK  211  A    between atoms: _505  and  _506
REMARK  212  A    between atoms: _505  and  _508
REMARK  213  A    between atoms: _508  and  _509
REMARK  214  A    between atoms: _512  and  _514
REMARK  215  A    between atoms: _514  and  _515
REMARK  216  A    between atoms: _514  and  _517
REMARK  217  A    between atoms: _517  and  _518
REMARK  218  A    between atoms: _523  and  _525
REMARK  219  A    between atoms: _525  and  _526
REMARK  220  A    between atoms: _525  and  _528
REMARK  221  A    between atoms: _530  and  _532
REMARK  222  A    between atoms: _532  and  _533
REMARK  223  A    between atoms: _532  and  _535
REMARK  224  A    between atoms: _535  and  _536
REMARK  225  A    between atoms: _542  and  _544
REMARK  226  A    between atoms: _544  and  _545
REMARK  227  A    between atoms: _544  and  _547
REMARK  228  A    between atoms: _550  and  _552
REMARK  229  A    between atoms: _552  and  _553
REMARK  230  A    between atoms: _552  and  _555
REMARK  231  A    between atoms: _555  and  _556
REMARK  232  A    between atoms: _559  and  _561
REMARK  233  A    between atoms: _561  and  _562
REMARK  234  A    between atoms: _561  and  _564
REMARK  235  A    between atoms: _567  and  _569
REMARK  236  A    between atoms: _569  and  _570
REMARK  237  A    between atoms: _569  and  _572
REMARK  238  A    between atoms: _572  and  _573
REMARK  239  A    between atoms: _578  and  _579
REMARK  240  A    between atoms: _581  and  _583
REMARK  241  A    between atoms: _583  and  _584
REMARK                            x       y       z     vdW  Elec       q    Type
REMARK                         _______ _______ _______ _____ _____    ______ ____
ROOT
ATOM      1  O   HOH     1       3.586  28.339  32.902  0.00  0.00    +0.000 OA
ENDROOT
TORSDOF 0
REMARK  Name = ../refined-set-2016/3e3c/3e3c_pocket.pdb
REMARK  241 active torsions:
REMARK  status: ('A' for Active; 'I' for Inactive)
REMARK    1  A    between atoms: _1  and  _3
REMARK    2  A    between atoms: _3  and  _4
REMARK    3  A    between atoms: _3  and  _6
REMARK    4  A    between atoms: _6  and  _7
REMARK    5  A    between atoms: _9  and  _11
REMARK    6  A    between atoms: _11  and  _12
REMARK    7  A    between atoms: _11  and  _14
REMARK    8  A    between atoms: _14  and  _15
REMARK    9  A    between atoms: _15  and  _16
REMARK   10  A    between atoms: _18  and  _20
REMARK   11  A    between atoms: _20  and  _21
REMARK   12  A    between atoms: _20  and  _23
REMARK   13  A    between atoms: _23  and  _24
REMARK   14  A    between atoms: _27  and  _29
REMARK   15  A    between atoms: _29  and  _30
REMARK   16  A    between atoms: _29  and  _32
REMARK   17  A    between atoms: _32  and  _33
REMARK   18  A    between atoms: _36  and  _38
REMARK   19  A    between atoms: _38  and  _39
REMARK   20  A    between atoms: _38  and  _41
REMARK   21  A    between atoms: _41  and  _42
REMARK   22  A    between atoms: _48  and  _50
REMARK   23  A    between atoms: _50  and  _51
REMARK   24  A    between atoms: _50  and  _53
REMARK   25  A    between atoms: _53  and  _54
REMARK   26  A    between atoms: _57  and  _59
REMARK   27  A    between atoms: _59  and  _60
REMARK   28  A    between atoms: _59  and  _62
REMARK   29  A    between atoms: _62  and  _63
REMARK   30  A    between atoms: _65  and  _67
REMARK   31  A    between atoms: _67  and  _68
REMARK   32  A    between atoms: _67  and  _70
REMARK   33  A    between atoms: _70  and  _71
REMARK   34  A    between atoms: _73  and  _75
REMARK   35  A    between atoms: _75  and  _76
REMARK   36  A    between atoms: _75  and  _78
REMARK   37  A    between atoms: _80  and  _82
REMARK   38  A    between atoms: _82  and  _83
REMARK   39  A    between atoms: _85  and  _87
REMARK   40  A    between atoms: _87  and  _88
REMARK   41  A    between atoms: _87  and  _90
REMARK   42  A    between atoms: _90  and  _91
REMARK   43  A    between atoms: _91  and  _92
REMARK   44  A    between atoms: _95  and  _97
REMARK   45  A    between atoms: _97  and  _98
REMARK   46  A    between atoms: _100  and  _102
REMARK   47  A    between atoms: _102  and  _103
REMARK   48  A    between atoms: _102  and  _105
REMARK   49  A    between atoms: _105  and  _106
REMARK   50  A    between atoms: _109  and  _111
REMARK   51  A    between atoms: _111  and  _112
REMARK   52  A    between atoms: _111  and  _114
REMARK   53  A    between atoms: _114  and  _115
REMARK   54  A    between atoms: _118  and  _120
REMARK   55  A    between atoms: _120  and  _121
REMARK   56  A    between atoms: _120  and  _123
REMARK   57  A    between atoms: _123  and  _124
REMARK   58  A    between atoms: _127  and  _129
REMARK   59  A    between atoms: _129  and  _130
REMARK   60  A    between atoms: _129  and  _132
REMARK   61  A    between atoms: _132  and  _133
REMARK   62  A    between atoms: _133  and  _134
REMARK   63  A    between atoms: _134  and  _135
REMARK   64  A    between atoms: _135  and  _136
REMARK   65  A    between atoms: _140  and  _142
REMARK   66  A    between atoms: _142  and  _143
REMARK   67  A    between atoms: _142  and  _145
REMARK   68  A    between atoms: _145  and  _146
REMARK   69  A    between atoms: _149  and  _151
REMARK   70  A    between atoms: _151  and  _152
REMARK   71  A    between atoms: _151  and  _154
REMARK   72  A    between atoms: _154  and  _155
REMARK   73  A    between atoms: _158  and  _160
REMARK   74  A    between atoms: _160  and  _161
REMARK   75  A    between atoms: _163  and  _165
REMARK   76  A    between atoms: _165  and  _166
REMARK   77  A    between atoms: _168  and  _170
REMARK   78  A    between atoms: _170  and  _171
REMARK   79  A    between atoms: _170  and  _173
REMARK   80  A    between atoms: _173  and  _174
REMARK   81  A    between atoms: _177  and  _179
REMARK   82  A    between atoms: _179  and  _180
REMARK   83  A    between atoms: _179  and  _182
REMARK   84  A    between atoms: _182  and  _183
REMARK   85  A    between atoms: _186  and  _188
REMARK   86  A    between atoms: _188  and  _189
REMARK   87  A    between atoms: _192  and  _194
REMARK   88  A    between atoms: _194  and  _195
REMARK   89  A    between atoms: _194  and  _197
REMARK   90  A    between atoms: _197  and  _198
REMARK   91  A    between atoms: _200  and  _202
REMARK   92  A    between atoms: _202  and  _203
REMARK   93  A    between atoms: _202  and  _205
REMARK   94  A    between atoms: _208  and  _210
REMARK   95  A    between atoms: _210  and  _211
REMARK   96  A    between atoms: _210  and  _213
REMARK   97  A    between atoms: _213  and  _214
REMARK   98  A    between atoms: _219  and  _220
REMARK   99  A    between atoms: _222  and  _224
REMARK  100  A    between atoms: _224  and  _225
REMARK  101  A    between atoms: _224  and  _227
REMARK  102  A    between atoms: _227  and  _228
REMARK  103  A    between atoms: _228  and  _229
REMARK  104  A    between atoms: _234  and  _236
REMARK  105  A    between atoms: _236  and  _237
REMARK  106  A    between atoms: _239  and  _241
REMARK  107  A    between atoms: _241  and  _242
REMARK  108  A    between atoms: _241  and  _244
REMARK  109  A    between atoms: _244  and  _245
REMARK  110  A    between atoms: _248  and  _250
REMARK  111  A    between atoms: _250  and  _251
REMARK  112  A    between atoms: _250  and  _253
REMARK  113  A    between atoms: _253  and  _254
REMARK  114  A    between atoms: _257  and  _259
REMARK  115  A    between atoms: _259  and  _260
REMARK  116  A    between atoms: _259  and  _262
REMARK  117  A    between atoms: _262  and  _263
REMARK  118  A    between atoms: _266  and  _268
REMARK  119  A    between atoms: _268  and  _269
REMARK  120  A    between atoms: _268  and  _271
REMARK  121  A    between atoms: _271  and  _272
REMARK  122  A    between atoms: _277  and  _279
REMARK  123  A    between atoms: _279  and  _280
REMARK  124  A    between atoms: _279  and  _282
REMARK  125  A    between atoms: _285  and  _287
REMARK  126  A    between atoms: _287  and  _288
REMARK  127  A    between atoms: _287  and  _290
REMARK  128  A    between atoms: _290  and  _291
REMARK  129  A    between atoms: _296  and  _298
REMARK  130  A    between atoms: _298  and  _299
REMARK  131  A    between atoms: _298  and  _301
REMARK  132  A    between atoms: _301  and  _302
REMARK  133  A    between atoms: _302  and  _303
REMARK  134  A    between atoms: _303  and  _304
REMARK  135  A    between atoms: _313  and  _315
REMARK  136  A    between atoms: _315  and  _316
REMARK  137  A    between atoms: _315  and  _318
REMARK  138  A    between atoms: _318  and  _319
REMARK  139  A    between atoms: _324  and  _325
REMARK  140  A    between atoms: _327  and  _329
REMARK  141  A    between atoms: _329  and  _330
REMARK  142  A    between atoms: _329  and  _332
REMARK  143  A    between atoms: _332  and  _333
REMARK  144  A    between atoms: _338  and  _340
REMARK  145  A    between atoms: _340  and  _341
REMARK  146  A    between atoms: _340  and  _343
REMARK  147  A    between atoms: _343  and  _344
REMARK  148  A    between atoms: _348  and  _349
REMARK  149  A    between atoms: _354  and  _356
REMARK  150  A    between atoms: _356  and  _357
REMARK  151  A    between atoms: _356  and  _359
REMARK  152  A    between atoms: _359  and  _360
REMARK  153  A    between atoms: _362  and  _364
REMARK  154  A    between atoms: _364  and  _365
REMARK  155  A    between atoms: _364  and  _367
REMARK  156  A    between atoms: _370  and  _372
REMARK  157  A    between atoms: _372  and  _373
REMARK  158  A    between atoms: _372  and  _375
REMARK  159  A    between atoms: _375  and  _376
REMARK  160  A    between atoms: _379  and  _381
REMARK  161  A    between atoms: _381  and  _382
REMARK  162  A    between atoms: _381  and  _384
REMARK  163  A    between atoms: _384  and  _385
REMARK  164  A    between atoms: _390  and  _392
REMARK  165  A    between atoms: _392  and  _393
REMARK  166  A    between atoms: _392  and  _395
REMARK  167  A    between atoms: _395  and  _396
REMARK  168  A    between atoms: _399  and  _401
REMARK  169  A    between atoms: _401  and  _402
REMARK  170  A    between atoms: _401  and  _404
REMARK  171  A    between atoms: _404  and  _405
REMARK  172  A    between atoms: _405  and  _406
REMARK  173  A    between atoms: _409  and  _411
REMARK  174  A    between atoms: _411  and  _412
REMARK  175  A    between atoms: _411  and  _414
REMARK  176  A    between atoms: _414  and  _415
REMARK  177  A    between atoms: _415  and  _416
REMARK  178  A    between atoms: _421  and  _423
REMARK  179  A    between atoms: _423  and  _424
REMARK  180  A    between atoms: _423  and  _426
REMARK  181  A    between atoms: _426  and  _427
REMARK  182  A    between atoms: _430  and  _432
REMARK  183  A    between atoms: _432  and  _433
REMARK  184  A    between atoms: _432  and  _435
REMARK  185  A    between atoms: _435  and  _436
REMARK  186  A    between atoms: _441  and  _442
REMARK  187  A    between atoms: _444  and  _446
REMARK  188  A    between atoms: _446  and  _447
REMARK  189  A    between atoms: _446  and  _449
REMARK  190  A    between atoms: _449  and  _450
REMARK  191  A    between atoms: _453  and  _455
REMARK  192  A    between atoms: _455  and  _456
REMARK  193  A    between atoms: _455  and  _458
REMARK  194  A    between atoms: _461  and  _463
REMARK  195  A    between atoms: _463  and  _464
REMARK  196  A    between atoms: _463  and  _466
REMARK  197  A    between atoms: _466  and  _467
REMARK  198  A    between atoms: _471  and  _472
REMARK  199  A    between atoms: _477  and  _479
REMARK  200  A    between atoms: _479  and  _480
REMARK  201  A    between atoms: _479  and  _482
REMARK  202  A    between atoms: _485  and  _487
REMARK  203  A    between atoms: _487  and  _488
REMARK  204  A    between atoms: _487  and  _490
REMARK  205  A    between atoms: _490  and  _491
REMARK  206  A    between atoms: _494  and  _496
REMARK  207  A    between atoms: _496  and  _497
REMARK  208  A    between atoms: _496  and  _499
REMARK  209  A    between atoms: _499  and  _500
REMARK  210  A    between atoms: _503  and  _505
REMARK  211  A    between atoms: _505  and  _506
REMARK  212  A    between atoms: _505  and  _508
REMARK  213  A    between atoms: _508  and  _509
REMARK  214  A    between atoms: _512  and  _514
REMARK  215  A    between atoms: _514  and  _515
REMARK  216  A    between atoms: _514  and  _517
REMARK  217  A    between atoms: _517  and  _518
REMARK  218  A    between atoms: _523  and  _525
REMARK  219  A    between atoms: _525  and  _526
REMARK  220  A    between atoms: _525  and  _528
REMARK  221  A    between atoms: _530  and  _532
REMARK  222  A    between atoms: _532  and  _533
REMARK  223  A    between atoms: _532  and  _535
REMARK  224  A    between atoms: _535  and  _536
REMARK  225  A    between atoms: _542  and  _544
REMARK  226  A    between atoms: _544  and  _545
REMARK  227  A    between atoms: _544  and  _547
REMARK  228  A    between atoms: _550  and  _552
REMARK  229  A    between atoms: _552  and  _553
REMARK  230  A    between atoms: _552  and  _555
REMARK  231  A    between atoms: _555  and  _556
REMARK  232  A    between atoms: _559  and  _561
REMARK  233  A    between atoms: _561  and  _562
REMARK  234  A    between atoms: _561  and  _564
REMARK  235  A    between atoms: _567  and  _569
REMARK  236  A    between atoms: _569  and  _570
REMARK  237  A    between atoms: _569  and  _572
REMARK  238  A    between atoms: _572  and  _573
REMARK  239  A    between atoms: _578  and  _579
REMARK  240  A    between atoms: _581  and  _583
REMARK  241  A    between atoms: _583  and  _584
REMARK                            x       y       z     vdW  Elec       q    Type
REMARK                         _______ _______ _______ _____ _____    ______ ____
ROOT
ATOM      1  O   HOH     1       2.988  21.645  35.210  0.00  0.00    +0.000 OA
ENDROOT
TORSDOF 0
REMARK  Name = ../refined-set-2016/3e3c/3e3c_pocket.pdb
REMARK  241 active torsions:
REMARK  status: ('A' for Active; 'I' for Inactive)
REMARK    1  A    between atoms: _1  and  _3
REMARK    2  A    between atoms: _3  and  _4
REMARK    3  A    between atoms: _3  and  _6
REMARK    4  A    between atoms: _6  and  _7
REMARK    5  A    between atoms: _9  and  _11
REMARK    6  A    between atoms: _11  and  _12
REMARK    7  A    between atoms: _11  and  _14
REMARK    8  A    between atoms: _14  and  _15
REMARK    9  A    between atoms: _15  and  _16
REMARK   10  A    between atoms: _18  and  _20
REMARK   11  A    between atoms: _20  and  _21
REMARK   12  A    between atoms: _20  and  _23
REMARK   13  A    between atoms: _23  and  _24
REMARK   14  A    between atoms: _27  and  _29
REMARK   15  A    between atoms: _29  and  _30
REMARK   16  A    between atoms: _29  and  _32
REMARK   17  A    between atoms: _32  and  _33
REMARK   18  A    between atoms: _36  and  _38
REMARK   19  A    between atoms: _38  and  _39
REMARK   20  A    between atoms: _38  and  _41
REMARK   21  A    between atoms: _41  and  _42
REMARK   22  A    between atoms: _48  and  _50
REMARK   23  A    between atoms: _50  and  _51
REMARK   24  A    between atoms: _50  and  _53
REMARK   25  A    between atoms: _53  and  _54
REMARK   26  A    between atoms: _57  and  _59
REMARK   27  A    between atoms: _59  and  _60
REMARK   28  A    between atoms: _59  and  _62
REMARK   29  A    between atoms: _62  and  _63
REMARK   30  A    between atoms: _65  and  _67
REMARK   31  A    between atoms: _67  and  _68
REMARK   32  A    between atoms: _67  and  _70
REMARK   33  A    between atoms: _70  and  _71
REMARK   34  A    between atoms: _73  and  _75
REMARK   35  A    between atoms: _75  and  _76
REMARK   36  A    between atoms: _75  and  _78
REMARK   37  A    between atoms: _80  and  _82
REMARK   38  A    between atoms: _82  and  _83
REMARK   39  A    between atoms: _85  and  _87
REMARK   40  A    between atoms: _87  and  _88
REMARK   41  A    between atoms: _87  and  _90
REMARK   42  A    between atoms: _90  and  _91
REMARK   43  A    between atoms: _91  and  _92
REMARK   44  A    between atoms: _95  and  _97
REMARK   45  A    between atoms: _97  and  _98
REMARK   46  A    between atoms: _100  and  _102
REMARK   47  A    between atoms: _102  and  _103
REMARK   48  A    between atoms: _102  and  _105
REMARK   49  A    between atoms: _105  and  _106
REMARK   50  A    between atoms: _109  and  _111
REMARK   51  A    between atoms: _111  and  _112
REMARK   52  A    between atoms: _111  and  _114
REMARK   53  A    between atoms: _114  and  _115
REMARK   54  A    between atoms: _118  and  _120
REMARK   55  A    between atoms: _120  and  _121
REMARK   56  A    between atoms: _120  and  _123
REMARK   57  A    between atoms: _123  and  _124
REMARK   58  A    between atoms: _127  and  _129
REMARK   59  A    between atoms: _129  and  _130
REMARK   60  A    between atoms: _129  and  _132
REMARK   61  A    between atoms: _132  and  _133
REMARK   62  A    between atoms: _133  and  _134
REMARK   63  A    between atoms: _134  and  _135
REMARK   64  A    between atoms: _135  and  _136
REMARK   65  A    between atoms: _140  and  _142
REMARK   66  A    between atoms: _142  and  _143
REMARK   67  A    between atoms: _142  and  _145
REMARK   68  A    between atoms: _145  and  _146
REMARK   69  A    between atoms: _149  and  _151
REMARK   70  A    between atoms: _151  and  _152
REMARK   71  A    between atoms: _151  and  _154
REMARK   72  A    between atoms: _154  and  _155
REMARK   73  A    between atoms: _158  and  _160
REMARK   74  A    between atoms: _160  and  _161
REMARK   75  A    between atoms: _163  and  _165
REMARK   76  A    between atoms: _165  and  _166
REMARK   77  A    between atoms: _168  and  _170
REMARK   78  A    between atoms: _170  and  _171
REMARK   79  A    between atoms: _170  and  _173
REMARK   80  A    between atoms: _173  and  _174
REMARK   81  A    between atoms: _177  and  _179
REMARK   82  A    between atoms: _179  and  _180
REMARK   83  A    between atoms: _179  and  _182
REMARK   84  A    between atoms: _182  and  _183
REMARK   85  A    between atoms: _186  and  _188
REMARK   86  A    between atoms: _188  and  _189
REMARK   87  A    between atoms: _192  and  _194
REMARK   88  A    between atoms: _194  and  _195
REMARK   89  A    between atoms: _194  and  _197
REMARK   90  A    between atoms: _197  and  _198
REMARK   91  A    between atoms: _200  and  _202
REMARK   92  A    between atoms: _202  and  _203
REMARK   93  A    between atoms: _202  and  _205
REMARK   94  A    between atoms: _208  and  _210
REMARK   95  A    between atoms: _210  and  _211
REMARK   96  A    between atoms: _210  and  _213
REMARK   97  A    between atoms: _213  and  _214
REMARK   98  A    between atoms: _219  and  _220
REMARK   99  A    between atoms: _222  and  _224
REMARK  100  A    between atoms: _224  and  _225
REMARK  101  A    between atoms: _224  and  _227
REMARK  102  A    between atoms: _227  and  _228
REMARK  103  A    between atoms: _228  and  _229
REMARK  104  A    between atoms: _234  and  _236
REMARK  105  A    between atoms: _236  and  _237
REMARK  106  A    between atoms: _239  and  _241
REMARK  107  A    between atoms: _241  and  _242
REMARK  108  A    between atoms: _241  and  _244
REMARK  109  A    between atoms: _244  and  _245
REMARK  110  A    between atoms: _248  and  _250
REMARK  111  A    between atoms: _250  and  _251
REMARK  112  A    between atoms: _250  and  _253
REMARK  113  A    between atoms: _253  and  _254
REMARK  114  A    between atoms: _257  and  _259
REMARK  115  A    between atoms: _259  and  _260
REMARK  116  A    between atoms: _259  and  _262
REMARK  117  A    between atoms: _262  and  _263
REMARK  118  A    between atoms: _266  and  _268
REMARK  119  A    between atoms: _268  and  _269
REMARK  120  A    between atoms: _268  and  _271
REMARK  121  A    between atoms: _271  and  _272
REMARK  122  A    between atoms: _277  and  _279
REMARK  123  A    between atoms: _279  and  _280
REMARK  124  A    between atoms: _279  and  _282
REMARK  125  A    between atoms: _285  and  _287
REMARK  126  A    between atoms: _287  and  _288
REMARK  127  A    between atoms: _287  and  _290
REMARK  128  A    between atoms: _290  and  _291
REMARK  129  A    between atoms: _296  and  _298
REMARK  130  A    between atoms: _298  and  _299
REMARK  131  A    between atoms: _298  and  _301
REMARK  132  A    between atoms: _301  and  _302
REMARK  133  A    between atoms: _302  and  _303
REMARK  134  A    between atoms: _303  and  _304
REMARK  135  A    between atoms: _313  and  _315
REMARK  136  A    between atoms: _315  and  _316
REMARK  137  A    between atoms: _315  and  _318
REMARK  138  A    between atoms: _318  and  _319
REMARK  139  A    between atoms: _324  and  _325
REMARK  140  A    between atoms: _327  and  _329
REMARK  141  A    between atoms: _329  and  _330
REMARK  142  A    between atoms: _329  and  _332
REMARK  143  A    between atoms: _332  and  _333
REMARK  144  A    between atoms: _338  and  _340
REMARK  145  A    between atoms: _340  and  _341
REMARK  146  A    between atoms: _340  and  _343
REMARK  147  A    between atoms: _343  and  _344
REMARK  148  A    between atoms: _348  and  _349
REMARK  149  A    between atoms: _354  and  _356
REMARK  150  A    between atoms: _356  and  _357
REMARK  151  A    between atoms: _356  and  _359
REMARK  152  A    between atoms: _359  and  _360
REMARK  153  A    between atoms: _362  and  _364
REMARK  154  A    between atoms: _364  and  _365
REMARK  155  A    between atoms: _364  and  _367
REMARK  156  A    between atoms: _370  and  _372
REMARK  157  A    between atoms: _372  and  _373
REMARK  158  A    between atoms: _372  and  _375
REMARK  159  A    between atoms: _375  and  _376
REMARK  160  A    between atoms: _379  and  _381
REMARK  161  A    between atoms: _381  and  _382
REMARK  162  A    between atoms: _381  and  _384
REMARK  163  A    between atoms: _384  and  _385
REMARK  164  A    between atoms: _390  and  _392
REMARK  165  A    between atoms: _392  and  _393
REMARK  166  A    between atoms: _392  and  _395
REMARK  167  A    between atoms: _395  and  _396
REMARK  168  A    between atoms: _399  and  _401
REMARK  169  A    between atoms: _401  and  _402
REMARK  170  A    between atoms: _401  and  _404
REMARK  171  A    between atoms: _404  and  _405
REMARK  172  A    between atoms: _405  and  _406
REMARK  173  A    between atoms: _409  and  _411
REMARK  174  A    between atoms: _411  and  _412
REMARK  175  A    between atoms: _411  and  _414
REMARK  176  A    between atoms: _414  and  _415
REMARK  177  A    between atoms: _415  and  _416
REMARK  178  A    between atoms: _421  and  _423
REMARK  179  A    between atoms: _423  and  _424
REMARK  180  A    between atoms: _423  and  _426
REMARK  181  A    between atoms: _426  and  _427
REMARK  182  A    between atoms: _430  and  _432
REMARK  183  A    between atoms: _432  and  _433
REMARK  184  A    between atoms: _432  and  _435
REMARK  185  A    between atoms: _435  and  _436
REMARK  186  A    between atoms: _441  and  _442
REMARK  187  A    between atoms: _444  and  _446
REMARK  188  A    between atoms: _446  and  _447
REMARK  189  A    between atoms: _446  and  _449
REMARK  190  A    between atoms: _449  and  _450
REMARK  191  A    between atoms: _453  and  _455
REMARK  192  A    between atoms: _455  and  _456
REMARK  193  A    between atoms: _455  and  _458
REMARK  194  A    between atoms: _461  and  _463
REMARK  195  A    between atoms: _463  and  _464
REMARK  196  A    between atoms: _463  and  _466
REMARK  197  A    between atoms: _466  and  _467
REMARK  198  A    between atoms: _471  and  _472
REMARK  199  A    between atoms: _477  and  _479
REMARK  200  A    between atoms: _479  and  _480
REMARK  201  A    between atoms: _479  and  _482
REMARK  202  A    between atoms: _485  and  _487
REMARK  203  A    between atoms: _487  and  _488
REMARK  204  A    between atoms: _487  and  _490
REMARK  205  A    between atoms: _490  and  _491
REMARK  206  A    between atoms: _494  and  _496
REMARK  207  A    between atoms: _496  and  _497
REMARK  208  A    between atoms: _496  and  _499
REMARK  209  A    between atoms: _499  and  _500
REMARK  210  A    between atoms: _503  and  _505
REMARK  211  A    between atoms: _505  and  _506
REMARK  212  A    between atoms: _505  and  _508
REMARK  213  A    between atoms: _508  and  _509
REMARK  214  A    between atoms: _512  and  _514
REMARK  215  A    between atoms: _514  and  _515
REMARK  216  A    between atoms: _514  and  _517
REMARK  217  A    between atoms: _517  and  _518
REMARK  218  A    between atoms: _523  and  _525
REMARK  219  A    between atoms: _525  and  _526
REMARK  220  A    between atoms: _525  and  _528
REMARK  221  A    between atoms: _530  and  _532
REMARK  222  A    between atoms: _532  and  _533
REMARK  223  A    between atoms: _532  and  _535
REMARK  224  A    between atoms: _535  and  _536
REMARK  225  A    between atoms: _542  and  _544
REMARK  226  A    between atoms: _544  and  _545
REMARK  227  A    between atoms: _544  and  _547
REMARK  228  A    between atoms: _550  and  _552
REMARK  229  A    between atoms: _552  and  _553
REMARK  230  A    between atoms: _552  and  _555
REMARK  231  A    between atoms: _555  and  _556
REMARK  232  A    between atoms: _559  and  _561
REMARK  233  A    between atoms: _561  and  _562
REMARK  234  A    between atoms: _561  and  _564
REMARK  235  A    between atoms: _567  and  _569
REMARK  236  A    between atoms: _569  and  _570
REMARK  237  A    between atoms: _569  and  _572
REMARK  238  A    between atoms: _572  and  _573
REMARK  239  A    between atoms: _578  and  _579
REMARK  240  A    between atoms: _581  and  _583
REMARK  241  A    between atoms: _583  and  _584
REMARK                            x       y       z     vdW  Elec       q    Type
REMARK                         _______ _______ _______ _____ _____    ______ ____
ROOT
ATOM      1  O   HOH     1      -1.190  28.109  33.202  0.00  0.00    +0.000 OA
ENDROOT
TORSDOF 0
REMARK  Name = ../refined-set-2016/3e3c/3e3c_pocket.pdb
REMARK  241 active torsions:
REMARK  status: ('A' for Active; 'I' for Inactive)
REMARK    1  A    between atoms: _1  and  _3
REMARK    2  A    between atoms: _3  and  _4
REMARK    3  A    between atoms: _3  and  _6
REMARK    4  A    between atoms: _6  and  _7
REMARK    5  A    between atoms: _9  and  _11
REMARK    6  A    between atoms: _11  and  _12
REMARK    7  A    between atoms: _11  and  _14
REMARK    8  A    between atoms: _14  and  _15
REMARK    9  A    between atoms: _15  and  _16
REMARK   10  A    between atoms: _18  and  _20
REMARK   11  A    between atoms: _20  and  _21
REMARK   12  A    between atoms: _20  and  _23
REMARK   13  A    between atoms: _23  and  _24
REMARK   14  A    between atoms: _27  and  _29
REMARK   15  A    between atoms: _29  and  _30
REMARK   16  A    between atoms: _29  and  _32
REMARK   17  A    between atoms: _32  and  _33
REMARK   18  A    between atoms: _36  and  _38
REMARK   19  A    between atoms: _38  and  _39
REMARK   20  A    between atoms: _38  and  _41
REMARK   21  A    between atoms: _41  and  _42
REMARK   22  A    between atoms: _48  and  _50
REMARK   23  A    between atoms: _50  and  _51
REMARK   24  A    between atoms: _50  and  _53
REMARK   25  A    between atoms: _53  and  _54
REMARK   26  A    between atoms: _57  and  _59
REMARK   27  A    between atoms: _59  and  _60
REMARK   28  A    between atoms: _59  and  _62
REMARK   29  A    between atoms: _62  and  _63
REMARK   30  A    between atoms: _65  and  _67
REMARK   31  A    between atoms: _67  and  _68
REMARK   32  A    between atoms: _67  and  _70
REMARK   33  A    between atoms: _70  and  _71
REMARK   34  A    between atoms: _73  and  _75
REMARK   35  A    between atoms: _75  and  _76
REMARK   36  A    between atoms: _75  and  _78
REMARK   37  A    between atoms: _80  and  _82
REMARK   38  A    between atoms: _82  and  _83
REMARK   39  A    between atoms: _85  and  _87
REMARK   40  A    between atoms: _87  and  _88
REMARK   41  A    between atoms: _87  and  _90
REMARK   42  A    between atoms: _90  and  _91
REMARK   43  A    between atoms: _91  and  _92
REMARK   44  A    between atoms: _95  and  _97
REMARK   45  A    between atoms: _97  and  _98
REMARK   46  A    between atoms: _100  and  _102
REMARK   47  A    between atoms: _102  and  _103
REMARK   48  A    between atoms: _102  and  _105
REMARK   49  A    between atoms: _105  and  _106
REMARK   50  A    between atoms: _109  and  _111
REMARK   51  A    between atoms: _111  and  _112
REMARK   52  A    between atoms: _111  and  _114
REMARK   53  A    between atoms: _114  and  _115
REMARK   54  A    between atoms: _118  and  _120
REMARK   55  A    between atoms: _120  and  _121
REMARK   56  A    between atoms: _120  and  _123
REMARK   57  A    between atoms: _123  and  _124
REMARK   58  A    between atoms: _127  and  _129
REMARK   59  A    between atoms: _129  and  _130
REMARK   60  A    between atoms: _129  and  _132
REMARK   61  A    between atoms: _132  and  _133
REMARK   62  A    between atoms: _133  and  _134
REMARK   63  A    between atoms: _134  and  _135
REMARK   64  A    between atoms: _135  and  _136
REMARK   65  A    between atoms: _140  and  _142
REMARK   66  A    between atoms: _142  and  _143
REMARK   67  A    between atoms: _142  and  _145
REMARK   68  A    between atoms: _145  and  _146
REMARK   69  A    between atoms: _149  and  _151
REMARK   70  A    between atoms: _151  and  _152
REMARK   71  A    between atoms: _151  and  _154
REMARK   72  A    between atoms: _154  and  _155
REMARK   73  A    between atoms: _158  and  _160
REMARK   74  A    between atoms: _160  and  _161
REMARK   75  A    between atoms: _163  and  _165
REMARK   76  A    between atoms: _165  and  _166
REMARK   77  A    between atoms: _168  and  _170
REMARK   78  A    between atoms: _170  and  _171
REMARK   79  A    between atoms: _170  and  _173
REMARK   80  A    between atoms: _173  and  _174
REMARK   81  A    between atoms: _177  and  _179
REMARK   82  A    between atoms: _179  and  _180
REMARK   83  A    between atoms: _179  and  _182
REMARK   84  A    between atoms: _182  and  _183
REMARK   85  A    between atoms: _186  and  _188
REMARK   86  A    between atoms: _188  and  _189
REMARK   87  A    between atoms: _192  and  _194
REMARK   88  A    between atoms: _194  and  _195
REMARK   89  A    between atoms: _194  and  _197
REMARK   90  A    between atoms: _197  and  _198
REMARK   91  A    between atoms: _200  and  _202
REMARK   92  A    between atoms: _202  and  _203
REMARK   93  A    between atoms: _202  and  _205
REMARK   94  A    between atoms: _208  and  _210
REMARK   95  A    between atoms: _210  and  _211
REMARK   96  A    between atoms: _210  and  _213
REMARK   97  A    between atoms: _213  and  _214
REMARK   98  A    between atoms: _219  and  _220
REMARK   99  A    between atoms: _222  and  _224
REMARK  100  A    between atoms: _224  and  _225
REMARK  101  A    between atoms: _224  and  _227
REMARK  102  A    between atoms: _227  and  _228
REMARK  103  A    between atoms: _228  and  _229
REMARK  104  A    between atoms: _234  and  _236
REMARK  105  A    between atoms: _236  and  _237
REMARK  106  A    between atoms: _239  and  _241
REMARK  107  A    between atoms: _241  and  _242
REMARK  108  A    between atoms: _241  and  _244
REMARK  109  A    between atoms: _244  and  _245
REMARK  110  A    between atoms: _248  and  _250
REMARK  111  A    between atoms: _250  and  _251
REMARK  112  A    between atoms: _250  and  _253
REMARK  113  A    between atoms: _253  and  _254
REMARK  114  A    between atoms: _257  and  _259
REMARK  115  A    between atoms: _259  and  _260
REMARK  116  A    between atoms: _259  and  _262
REMARK  117  A    between atoms: _262  and  _263
REMARK  118  A    between atoms: _266  and  _268
REMARK  119  A    between atoms: _268  and  _269
REMARK  120  A    between atoms: _268  and  _271
REMARK  121  A    between atoms: _271  and  _272
REMARK  122  A    between atoms: _277  and  _279
REMARK  123  A    between atoms: _279  and  _280
REMARK  124  A    between atoms: _279  and  _282
REMARK  125  A    between atoms: _285  and  _287
REMARK  126  A    between atoms: _287  and  _288
REMARK  127  A    between atoms: _287  and  _290
REMARK  128  A    between atoms: _290  and  _291
REMARK  129  A    between atoms: _296  and  _298
REMARK  130  A    between atoms: _298  and  _299
REMARK  131  A    between atoms: _298  and  _301
REMARK  132  A    between atoms: _301  and  _302
REMARK  133  A    between atoms: _302  and  _303
REMARK  134  A    between atoms: _303  and  _304
REMARK  135  A    between atoms: _313  and  _315
REMARK  136  A    between atoms: _315  and  _316
REMARK  137  A    between atoms: _315  and  _318
REMARK  138  A    between atoms: _318  and  _319
REMARK  139  A    between atoms: _324  and  _325
REMARK  140  A    between atoms: _327  and  _329
REMARK  141  A    between atoms: _329  and  _330
REMARK  142  A    between atoms: _329  and  _332
REMARK  143  A    between atoms: _332  and  _333
REMARK  144  A    between atoms: _338  and  _340
REMARK  145  A    between atoms: _340  and  _341
REMARK  146  A    between atoms: _340  and  _343
REMARK  147  A    between atoms: _343  and  _344
REMARK  148  A    between atoms: _348  and  _349
REMARK  149  A    between atoms: _354  and  _356
REMARK  150  A    between atoms: _356  and  _357
REMARK  151  A    between atoms: _356  and  _359
REMARK  152  A    between atoms: _359  and  _360
REMARK  153  A    between atoms: _362  and  _364
REMARK  154  A    between atoms: _364  and  _365
REMARK  155  A    between atoms: _364  and  _367
REMARK  156  A    between atoms: _370  and  _372
REMARK  157  A    between atoms: _372  and  _373
REMARK  158  A    between atoms: _372  and  _375
REMARK  159  A    between atoms: _375  and  _376
REMARK  160  A    between atoms: _379  and  _381
REMARK  161  A    between atoms: _381  and  _382
REMARK  162  A    between atoms: _381  and  _384
REMARK  163  A    between atoms: _384  and  _385
REMARK  164  A    between atoms: _390  and  _392
REMARK  165  A    between atoms: _392  and  _393
REMARK  166  A    between atoms: _392  and  _395
REMARK  167  A    between atoms: _395  and  _396
REMARK  168  A    between atoms: _399  and  _401
REMARK  169  A    between atoms: _401  and  _402
REMARK  170  A    between atoms: _401  and  _404
REMARK  171  A    between atoms: _404  and  _405
REMARK  172  A    between atoms: _405  and  _406
REMARK  173  A    between atoms: _409  and  _411
REMARK  174  A    between atoms: _411  and  _412
REMARK  175  A    between atoms: _411  and  _414
REMARK  176  A    between atoms: _414  and  _415
REMARK  177  A    between atoms: _415  and  _416
REMARK  178  A    between atoms: _421  and  _423
REMARK  179  A    between atoms: _423  and  _424
REMARK  180  A    between atoms: _423  and  _426
REMARK  181  A    between atoms: _426  and  _427
REMARK  182  A    between atoms: _430  and  _432
REMARK  183  A    between atoms: _432  and  _433
REMARK  184  A    between atoms: _432  and  _435
REMARK  185  A    between atoms: _435  and  _436
REMARK  186  A    between atoms: _441  and  _442
REMARK  187  A    between atoms: _444  and  _446
REMARK  188  A    between atoms: _446  and  _447
REMARK  189  A    between atoms: _446  and  _449
REMARK  190  A    between atoms: _449  and  _450
REMARK  191  A    between atoms: _453  and  _455
REMARK  192  A    between atoms: _455  and  _456
REMARK  193  A    between atoms: _455  and  _458
REMARK  194  A    between atoms: _461  and  _463
REMARK  195  A    between atoms: _463  and  _464
REMARK  196  A    between atoms: _463  and  _466
REMARK  197  A    between atoms: _466  and  _467
REMARK  198  A    between atoms: _471  and  _472
REMARK  199  A    between atoms: _477  and  _479
REMARK  200  A    between atoms: _479  and  _480
REMARK  201  A    between atoms: _479  and  _482
REMARK  202  A    between atoms: _485  and  _487
REMARK  203  A    between atoms: _487  and  _488
REMARK  204  A    between atoms: _487  and  _490
REMARK  205  A    between atoms: _490  and  _491
REMARK  206  A    between atoms: _494  and  _496
REMARK  207  A    between atoms: _496  and  _497
REMARK  208  A    between atoms: _496  and  _499
REMARK  209  A    between atoms: _499  and  _500
REMARK  210  A    between atoms: _503  and  _505
REMARK  211  A    between atoms: _505  and  _506
REMARK  212  A    between atoms: _505  and  _508
REMARK  213  A    between atoms: _508  and  _509
REMARK  214  A    between atoms: _512  and  _514
REMARK  215  A    between atoms: _514  and  _515
REMARK  216  A    between atoms: _514  and  _517
REMARK  217  A    between atoms: _517  and  _518
REMARK  218  A    between atoms: _523  and  _525
REMARK  219  A    between atoms: _525  and  _526
REMARK  220  A    between atoms: _525  and  _528
REMARK  221  A    between atoms: _530  and  _532
REMARK  222  A    between atoms: _532  and  _533
REMARK  223  A    between atoms: _532  and  _535
REMARK  224  A    between atoms: _535  and  _536
REMARK  225  A    between atoms: _542  and  _544
REMARK  226  A    between atoms: _544  and  _545
REMARK  227  A    between atoms: _544  and  _547
REMARK  228  A    between atoms: _550  and  _552
REMARK  229  A    between atoms: _552  and  _553
REMARK  230  A    between atoms: _552  and  _555
REMARK  231  A    between atoms: _555  and  _556
REMARK  232  A    between atoms: _559  and  _561
REMARK  233  A    between atoms: _561  and  _562
REMARK  234  A    between atoms: _561  and  _564
REMARK  235  A    between atoms: _567  and  _569
REMARK  236  A    between atoms: _569  and  _570
REMARK  237  A    between atoms: _569  and  _572
REMARK  238  A    between atoms: _572  and  _573
REMARK  239  A    between atoms: _578  and  _579
REMARK  240  A    between atoms: _581  and  _583
REMARK  241  A    between atoms: _583  and  _584
REMARK                            x       y       z     vdW  Elec       q    Type
REMARK                         _______ _______ _______ _____ _____    ______ ____
ROOT
ATOM      1  O   HOH     1       8.679  25.255  22.632  0.00  0.00    +0.000 OA
ENDROOT
TORSDOF 0
REMARK  Name = ../refined-set-2016/3e3c/3e3c_pocket.pdb
REMARK  241 active torsions:
REMARK  status: ('A' for Active; 'I' for Inactive)
REMARK    1  A    between atoms: _1  and  _3
REMARK    2  A    between atoms: _3  and  _4
REMARK    3  A    between atoms: _3  and  _6
REMARK    4  A    between atoms: _6  and  _7
REMARK    5  A    between atoms: _9  and  _11
REMARK    6  A    between atoms: _11  and  _12
REMARK    7  A    between atoms: _11  and  _14
REMARK    8  A    between atoms: _14  and  _15
REMARK    9  A    between atoms: _15  and  _16
REMARK   10  A    between atoms: _18  and  _20
REMARK   11  A    between atoms: _20  and  _21
REMARK   12  A    between atoms: _20  and  _23
REMARK   13  A    between atoms: _23  and  _24
REMARK   14  A    between atoms: _27  and  _29
REMARK   15  A    between atoms: _29  and  _30
REMARK   16  A    between atoms: _29  and  _32
REMARK   17  A    between atoms: _32  and  _33
REMARK   18  A    between atoms: _36  and  _38
REMARK   19  A    between atoms: _38  and  _39
REMARK   20  A    between atoms: _38  and  _41
REMARK   21  A    between atoms: _41  and  _42
REMARK   22  A    between atoms: _48  and  _50
REMARK   23  A    between atoms: _50  and  _51
REMARK   24  A    between atoms: _50  and  _53
REMARK   25  A    between atoms: _53  and  _54
REMARK   26  A    between atoms: _57  and  _59
REMARK   27  A    between atoms: _59  and  _60
REMARK   28  A    between atoms: _59  and  _62
REMARK   29  A    between atoms: _62  and  _63
REMARK   30  A    between atoms: _65  and  _67
REMARK   31  A    between atoms: _67  and  _68
REMARK   32  A    between atoms: _67  and  _70
REMARK   33  A    between atoms: _70  and  _71
REMARK   34  A    between atoms: _73  and  _75
REMARK   35  A    between atoms: _75  and  _76
REMARK   36  A    between atoms: _75  and  _78
REMARK   37  A    between atoms: _80  and  _82
REMARK   38  A    between atoms: _82  and  _83
REMARK   39  A    between atoms: _85  and  _87
REMARK   40  A    between atoms: _87  and  _88
REMARK   41  A    between atoms: _87  and  _90
REMARK   42  A    between atoms: _90  and  _91
REMARK   43  A    between atoms: _91  and  _92
REMARK   44  A    between atoms: _95  and  _97
REMARK   45  A    between atoms: _97  and  _98
REMARK   46  A    between atoms: _100  and  _102
REMARK   47  A    between atoms: _102  and  _103
REMARK   48  A    between atoms: _102  and  _105
REMARK   49  A    between atoms: _105  and  _106
REMARK   50  A    between atoms: _109  and  _111
REMARK   51  A    between atoms: _111  and  _112
REMARK   52  A    between atoms: _111  and  _114
REMARK   53  A    between atoms: _114  and  _115
REMARK   54  A    between atoms: _118  and  _120
REMARK   55  A    between atoms: _120  and  _121
REMARK   56  A    between atoms: _120  and  _123
REMARK   57  A    between atoms: _123  and  _124
REMARK   58  A    between atoms: _127  and  _129
REMARK   59  A    between atoms: _129  and  _130
REMARK   60  A    between atoms: _129  and  _132
REMARK   61  A    between atoms: _132  and  _133
REMARK   62  A    between atoms: _133  and  _134
REMARK   63  A    between atoms: _134  and  _135
REMARK   64  A    between atoms: _135  and  _136
REMARK   65  A    between atoms: _140  and  _142
REMARK   66  A    between atoms: _142  and  _143
REMARK   67  A    between atoms: _142  and  _145
REMARK   68  A    between atoms: _145  and  _146
REMARK   69  A    between atoms: _149  and  _151
REMARK   70  A    between atoms: _151  and  _152
REMARK   71  A    between atoms: _151  and  _154
REMARK   72  A    between atoms: _154  and  _155
REMARK   73  A    between atoms: _158  and  _160
REMARK   74  A    between atoms: _160  and  _161
REMARK   75  A    between atoms: _163  and  _165
REMARK   76  A    between atoms: _165  and  _166
REMARK   77  A    between atoms: _168  and  _170
REMARK   78  A    between atoms: _170  and  _171
REMARK   79  A    between atoms: _170  and  _173
REMARK   80  A    between atoms: _173  and  _174
REMARK   81  A    between atoms: _177  and  _179
REMARK   82  A    between atoms: _179  and  _180
REMARK   83  A    between atoms: _179  and  _182
REMARK   84  A    between atoms: _182  and  _183
REMARK   85  A    between atoms: _186  and  _188
REMARK   86  A    between atoms: _188  and  _189
REMARK   87  A    between atoms: _192  and  _194
REMARK   88  A    between atoms: _194  and  _195
REMARK   89  A    between atoms: _194  and  _197
REMARK   90  A    between atoms: _197  and  _198
REMARK   91  A    between atoms: _200  and  _202
REMARK   92  A    between atoms: _202  and  _203
REMARK   93  A    between atoms: _202  and  _205
REMARK   94  A    between atoms: _208  and  _210
REMARK   95  A    between atoms: _210  and  _211
REMARK   96  A    between atoms: _210  and  _213
REMARK   97  A    between atoms: _213  and  _214
REMARK   98  A    between atoms: _219  and  _220
REMARK   99  A    between atoms: _222  and  _224
REMARK  100  A    between atoms: _224  and  _225
REMARK  101  A    between atoms: _224  and  _227
REMARK  102  A    between atoms: _227  and  _228
REMARK  103  A    between atoms: _228  and  _229
REMARK  104  A    between atoms: _234  and  _236
REMARK  105  A    between atoms: _236  and  _237
REMARK  106  A    between atoms: _239  and  _241
REMARK  107  A    between atoms: _241  and  _242
REMARK  108  A    between atoms: _241  and  _244
REMARK  109  A    between atoms: _244  and  _245
REMARK  110  A    between atoms: _248  and  _250
REMARK  111  A    between atoms: _250  and  _251
REMARK  112  A    between atoms: _250  and  _253
REMARK  113  A    between atoms: _253  and  _254
REMARK  114  A    between atoms: _257  and  _259
REMARK  115  A    between atoms: _259  and  _260
REMARK  116  A    between atoms: _259  and  _262
REMARK  117  A    between atoms: _262  and  _263
REMARK  118  A    between atoms: _266  and  _268
REMARK  119  A    between atoms: _268  and  _269
REMARK  120  A    between atoms: _268  and  _271
REMARK  121  A    between atoms: _271  and  _272
REMARK  122  A    between atoms: _277  and  _279
REMARK  123  A    between atoms: _279  and  _280
REMARK  124  A    between atoms: _279  and  _282
REMARK  125  A    between atoms: _285  and  _287
REMARK  126  A    between atoms: _287  and  _288
REMARK  127  A    between atoms: _287  and  _290
REMARK  128  A    between atoms: _290  and  _291
REMARK  129  A    between atoms: _296  and  _298
REMARK  130  A    between atoms: _298  and  _299
REMARK  131  A    between atoms: _298  and  _301
REMARK  132  A    between atoms: _301  and  _302
REMARK  133  A    between atoms: _302  and  _303
REMARK  134  A    between atoms: _303  and  _304
REMARK  135  A    between atoms: _313  and  _315
REMARK  136  A    between atoms: _315  and  _316
REMARK  137  A    between atoms: _315  and  _318
REMARK  138  A    between atoms: _318  and  _319
REMARK  139  A    between atoms: _324  and  _325
REMARK  140  A    between atoms: _327  and  _329
REMARK  141  A    between atoms: _329  and  _330
REMARK  142  A    between atoms: _329  and  _332
REMARK  143  A    between atoms: _332  and  _333
REMARK  144  A    between atoms: _338  and  _340
REMARK  145  A    between atoms: _340  and  _341
REMARK  146  A    between atoms: _340  and  _343
REMARK  147  A    between atoms: _343  and  _344
REMARK  148  A    between atoms: _348  and  _349
REMARK  149  A    between atoms: _354  and  _356
REMARK  150  A    between atoms: _356  and  _357
REMARK  151  A    between atoms: _356  and  _359
REMARK  152  A    between atoms: _359  and  _360
REMARK  153  A    between atoms: _362  and  _364
REMARK  154  A    between atoms: _364  and  _365
REMARK  155  A    between atoms: _364  and  _367
REMARK  156  A    between atoms: _370  and  _372
REMARK  157  A    between atoms: _372  and  _373
REMARK  158  A    between atoms: _372  and  _375
REMARK  159  A    between atoms: _375  and  _376
REMARK  160  A    between atoms: _379  and  _381
REMARK  161  A    between atoms: _381  and  _382
REMARK  162  A    between atoms: _381  and  _384
REMARK  163  A    between atoms: _384  and  _385
REMARK  164  A    between atoms: _390  and  _392
REMARK  165  A    between atoms: _392  and  _393
REMARK  166  A    between atoms: _392  and  _395
REMARK  167  A    between atoms: _395  and  _396
REMARK  168  A    between atoms: _399  and  _401
REMARK  169  A    between atoms: _401  and  _402
REMARK  170  A    between atoms: _401  and  _404
REMARK  171  A    between atoms: _404  and  _405
REMARK  172  A    between atoms: _405  and  _406
REMARK  173  A    between atoms: _409  and  _411
REMARK  174  A    between atoms: _411  and  _412
REMARK  175  A    between atoms: _411  and  _414
REMARK  176  A    between atoms: _414  and  _415
REMARK  177  A    between atoms: _415  and  _416
REMARK  178  A    between atoms: _421  and  _423
REMARK  179  A    between atoms: _423  and  _424
REMARK  180  A    between atoms: _423  and  _426
REMARK  181  A    between atoms: _426  and  _427
REMARK  182  A    between atoms: _430  and  _432
REMARK  183  A    between atoms: _432  and  _433
REMARK  184  A    between atoms: _432  and  _435
REMARK  185  A    between atoms: _435  and  _436
REMARK  186  A    between atoms: _441  and  _442
REMARK  187  A    between atoms: _444  and  _446
REMARK  188  A    between atoms: _446  and  _447
REMARK  189  A    between atoms: _446  and  _449
REMARK  190  A    between atoms: _449  and  _450
REMARK  191  A    between atoms: _453  and  _455
REMARK  192  A    between atoms: _455  and  _456
REMARK  193  A    between atoms: _455  and  _458
REMARK  194  A    between atoms: _461  and  _463
REMARK  195  A    between atoms: _463  and  _464
REMARK  196  A    between atoms: _463  and  _466
REMARK  197  A    between atoms: _466  and  _467
REMARK  198  A    between atoms: _471  and  _472
REMARK  199  A    between atoms: _477  and  _479
REMARK  200  A    between atoms: _479  and  _480
REMARK  201  A    between atoms: _479  and  _482
REMARK  202  A    between atoms: _485  and  _487
REMARK  203  A    between atoms: _487  and  _488
REMARK  204  A    between atoms: _487  and  _490
REMARK  205  A    between atoms: _490  and  _491
REMARK  206  A    between atoms: _494  and  _496
REMARK  207  A    between atoms: _496  and  _497
REMARK  208  A    between atoms: _496  and  _499
REMARK  209  A    between atoms: _499  and  _500
REMARK  210  A    between atoms: _503  and  _505
REMARK  211  A    between atoms: _505  and  _506
REMARK  212  A    between atoms: _505  and  _508
REMARK  213  A    between atoms: _508  and  _509
REMARK  214  A    between atoms: _512  and  _514
REMARK  215  A    between atoms: _514  and  _515
REMARK  216  A    between atoms: _514  and  _517
REMARK  217  A    between atoms: _517  and  _518
REMARK  218  A    between atoms: _523  and  _525
REMARK  219  A    between atoms: _525  and  _526
REMARK  220  A    between atoms: _525  and  _528
REMARK  221  A    between atoms: _530  and  _532
REMARK  222  A    between atoms: _532  and  _533
REMARK  223  A    between atoms: _532  and  _535
REMARK  224  A    between atoms: _535  and  _536
REMARK  225  A    between atoms: _542  and  _544
REMARK  226  A    between atoms: _544  and  _545
REMARK  227  A    between atoms: _544  and  _547
REMARK  228  A    between atoms: _550  and  _552
REMARK  229  A    between atoms: _552  and  _553
REMARK  230  A    between atoms: _552  and  _555
REMARK  231  A    between atoms: _555  and  _556
REMARK  232  A    between atoms: _559  and  _561
REMARK  233  A    between atoms: _561  and  _562
REMARK  234  A    between atoms: _561  and  _564
REMARK  235  A    between atoms: _567  and  _569
REMARK  236  A    between atoms: _569  and  _570
REMARK  237  A    between atoms: _569  and  _572
REMARK  238  A    between atoms: _572  and  _573
REMARK  239  A    between atoms: _578  and  _579
REMARK  240  A    between atoms: _581  and  _583
REMARK  241  A    between atoms: _583  and  _584
REMARK                            x       y       z     vdW  Elec       q    Type
REMARK                         _______ _______ _______ _____ _____    ______ ____
ROOT
ATOM      1  O   HOH     1       9.777  31.633  26.061  0.00  0.00    +0.000 OA
ENDROOT
TORSDOF 0
REMARK  Name = ../refined-set-2016/3e3c/3e3c_pocket.pdb
REMARK  241 active torsions:
REMARK  status: ('A' for Active; 'I' for Inactive)
REMARK    1  A    between atoms: _1  and  _3
REMARK    2  A    between atoms: _3  and  _4
REMARK    3  A    between atoms: _3  and  _6
REMARK    4  A    between atoms: _6  and  _7
REMARK    5  A    between atoms: _9  and  _11
REMARK    6  A    between atoms: _11  and  _12
REMARK    7  A    between atoms: _11  and  _14
REMARK    8  A    between atoms: _14  and  _15
REMARK    9  A    between atoms: _15  and  _16
REMARK   10  A    between atoms: _18  and  _20
REMARK   11  A    between atoms: _20  and  _21
REMARK   12  A    between atoms: _20  and  _23
REMARK   13  A    between atoms: _23  and  _24
REMARK   14  A    between atoms: _27  and  _29
REMARK   15  A    between atoms: _29  and  _30
REMARK   16  A    between atoms: _29  and  _32
REMARK   17  A    between atoms: _32  and  _33
REMARK   18  A    between atoms: _36  and  _38
REMARK   19  A    between atoms: _38  and  _39
REMARK   20  A    between atoms: _38  and  _41
REMARK   21  A    between atoms: _41  and  _42
REMARK   22  A    between atoms: _48  and  _50
REMARK   23  A    between atoms: _50  and  _51
REMARK   24  A    between atoms: _50  and  _53
REMARK   25  A    between atoms: _53  and  _54
REMARK   26  A    between atoms: _57  and  _59
REMARK   27  A    between atoms: _59  and  _60
REMARK   28  A    between atoms: _59  and  _62
REMARK   29  A    between atoms: _62  and  _63
REMARK   30  A    between atoms: _65  and  _67
REMARK   31  A    between atoms: _67  and  _68
REMARK   32  A    between atoms: _67  and  _70
REMARK   33  A    between atoms: _70  and  _71
REMARK   34  A    between atoms: _73  and  _75
REMARK   35  A    between atoms: _75  and  _76
REMARK   36  A    between atoms: _75  and  _78
REMARK   37  A    between atoms: _80  and  _82
REMARK   38  A    between atoms: _82  and  _83
REMARK   39  A    between atoms: _85  and  _87
REMARK   40  A    between atoms: _87  and  _88
REMARK   41  A    between atoms: _87  and  _90
REMARK   42  A    between atoms: _90  and  _91
REMARK   43  A    between atoms: _91  and  _92
REMARK   44  A    between atoms: _95  and  _97
REMARK   45  A    between atoms: _97  and  _98
REMARK   46  A    between atoms: _100  and  _102
REMARK   47  A    between atoms: _102  and  _103
REMARK   48  A    between atoms: _102  and  _105
REMARK   49  A    between atoms: _105  and  _106
REMARK   50  A    between atoms: _109  and  _111
REMARK   51  A    between atoms: _111  and  _112
REMARK   52  A    between atoms: _111  and  _114
REMARK   53  A    between atoms: _114  and  _115
REMARK   54  A    between atoms: _118  and  _120
REMARK   55  A    between atoms: _120  and  _121
REMARK   56  A    between atoms: _120  and  _123
REMARK   57  A    between atoms: _123  and  _124
REMARK   58  A    between atoms: _127  and  _129
REMARK   59  A    between atoms: _129  and  _130
REMARK   60  A    between atoms: _129  and  _132
REMARK   61  A    between atoms: _132  and  _133
REMARK   62  A    between atoms: _133  and  _134
REMARK   63  A    between atoms: _134  and  _135
REMARK   64  A    between atoms: _135  and  _136
REMARK   65  A    between atoms: _140  and  _142
REMARK   66  A    between atoms: _142  and  _143
REMARK   67  A    between atoms: _142  and  _145
REMARK   68  A    between atoms: _145  and  _146
REMARK   69  A    between atoms: _149  and  _151
REMARK   70  A    between atoms: _151  and  _152
REMARK   71  A    between atoms: _151  and  _154
REMARK   72  A    between atoms: _154  and  _155
REMARK   73  A    between atoms: _158  and  _160
REMARK   74  A    between atoms: _160  and  _161
REMARK   75  A    between atoms: _163  and  _165
REMARK   76  A    between atoms: _165  and  _166
REMARK   77  A    between atoms: _168  and  _170
REMARK   78  A    between atoms: _170  and  _171
REMARK   79  A    between atoms: _170  and  _173
REMARK   80  A    between atoms: _173  and  _174
REMARK   81  A    between atoms: _177  and  _179
REMARK   82  A    between atoms: _179  and  _180
REMARK   83  A    between atoms: _179  and  _182
REMARK   84  A    between atoms: _182  and  _183
REMARK   85  A    between atoms: _186  and  _188
REMARK   86  A    between atoms: _188  and  _189
REMARK   87  A    between atoms: _192  and  _194
REMARK   88  A    between atoms: _194  and  _195
REMARK   89  A    between atoms: _194  and  _197
REMARK   90  A    between atoms: _197  and  _198
REMARK   91  A    between atoms: _200  and  _202
REMARK   92  A    between atoms: _202  and  _203
REMARK   93  A    between atoms: _202  and  _205
REMARK   94  A    between atoms: _208  and  _210
REMARK   95  A    between atoms: _210  and  _211
REMARK   96  A    between atoms: _210  and  _213
REMARK   97  A    between atoms: _213  and  _214
REMARK   98  A    between atoms: _219  and  _220
REMARK   99  A    between atoms: _222  and  _224
REMARK  100  A    between atoms: _224  and  _225
REMARK  101  A    between atoms: _224  and  _227
REMARK  102  A    between atoms: _227  and  _228
REMARK  103  A    between atoms: _228  and  _229
REMARK  104  A    between atoms: _234  and  _236
REMARK  105  A    between atoms: _236  and  _237
REMARK  106  A    between atoms: _239  and  _241
REMARK  107  A    between atoms: _241  and  _242
REMARK  108  A    between atoms: _241  and  _244
REMARK  109  A    between atoms: _244  and  _245
REMARK  110  A    between atoms: _248  and  _250
REMARK  111  A    between atoms: _250  and  _251
REMARK  112  A    between atoms: _250  and  _253
REMARK  113  A    between atoms: _253  and  _254
REMARK  114  A    between atoms: _257  and  _259
REMARK  115  A    between atoms: _259  and  _260
REMARK  116  A    between atoms: _259  and  _262
REMARK  117  A    between atoms: _262  and  _263
REMARK  118  A    between atoms: _266  and  _268
REMARK  119  A    between atoms: _268  and  _269
REMARK  120  A    between atoms: _268  and  _271
REMARK  121  A    between atoms: _271  and  _272
REMARK  122  A    between atoms: _277  and  _279
REMARK  123  A    between atoms: _279  and  _280
REMARK  124  A    between atoms: _279  and  _282
REMARK  125  A    between atoms: _285  and  _287
REMARK  126  A    between atoms: _287  and  _288
REMARK  127  A    between atoms: _287  and  _290
REMARK  128  A    between atoms: _290  and  _291
REMARK  129  A    between atoms: _296  and  _298
REMARK  130  A    between atoms: _298  and  _299
REMARK  131  A    between atoms: _298  and  _301
REMARK  132  A    between atoms: _301  and  _302
REMARK  133  A    between atoms: _302  and  _303
REMARK  134  A    between atoms: _303  and  _304
REMARK  135  A    between atoms: _313  and  _315
REMARK  136  A    between atoms: _315  and  _316
REMARK  137  A    between atoms: _315  and  _318
REMARK  138  A    between atoms: _318  and  _319
REMARK  139  A    between atoms: _324  and  _325
REMARK  140  A    between atoms: _327  and  _329
REMARK  141  A    between atoms: _329  and  _330
REMARK  142  A    between atoms: _329  and  _332
REMARK  143  A    between atoms: _332  and  _333
REMARK  144  A    between atoms: _338  and  _340
REMARK  145  A    between atoms: _340  and  _341
REMARK  146  A    between atoms: _340  and  _343
REMARK  147  A    between atoms: _343  and  _344
REMARK  148  A    between atoms: _348  and  _349
REMARK  149  A    between atoms: _354  and  _356
REMARK  150  A    between atoms: _356  and  _357
REMARK  151  A    between atoms: _356  and  _359
REMARK  152  A    between atoms: _359  and  _360
REMARK  153  A    between atoms: _362  and  _364
REMARK  154  A    between atoms: _364  and  _365
REMARK  155  A    between atoms: _364  and  _367
REMARK  156  A    between atoms: _370  and  _372
REMARK  157  A    between atoms: _372  and  _373
REMARK  158  A    between atoms: _372  and  _375
REMARK  159  A    between atoms: _375  and  _376
REMARK  160  A    between atoms: _379  and  _381
REMARK  161  A    between atoms: _381  and  _382
REMARK  162  A    between atoms: _381  and  _384
REMARK  163  A    between atoms: _384  and  _385
REMARK  164  A    between atoms: _390  and  _392
REMARK  165  A    between atoms: _392  and  _393
REMARK  166  A    between atoms: _392  and  _395
REMARK  167  A    between atoms: _395  and  _396
REMARK  168  A    between atoms: _399  and  _401
REMARK  169  A    between atoms: _401  and  _402
REMARK  170  A    between atoms: _401  and  _404
REMARK  171  A    between atoms: _404  and  _405
REMARK  172  A    between atoms: _405  and  _406
REMARK  173  A    between atoms: _409  and  _411
REMARK  174  A    between atoms: _411  and  _412
REMARK  175  A    between atoms: _411  and  _414
REMARK  176  A    between atoms: _414  and  _415
REMARK  177  A    between atoms: _415  and  _416
REMARK  178  A    between atoms: _421  and  _423
REMARK  179  A    between atoms: _423  and  _424
REMARK  180  A    between atoms: _423  and  _426
REMARK  181  A    between atoms: _426  and  _427
REMARK  182  A    between atoms: _430  and  _432
REMARK  183  A    between atoms: _432  and  _433
REMARK  184  A    between atoms: _432  and  _435
REMARK  185  A    between atoms: _435  and  _436
REMARK  186  A    between atoms: _441  and  _442
REMARK  187  A    between atoms: _444  and  _446
REMARK  188  A    between atoms: _446  and  _447
REMARK  189  A    between atoms: _446  and  _449
REMARK  190  A    between atoms: _449  and  _450
REMARK  191  A    between atoms: _453  and  _455
REMARK  192  A    between atoms: _455  and  _456
REMARK  193  A    between atoms: _455  and  _458
REMARK  194  A    between atoms: _461  and  _463
REMARK  195  A    between atoms: _463  and  _464
REMARK  196  A    between atoms: _463  and  _466
REMARK  197  A    between atoms: _466  and  _467
REMARK  198  A    between atoms: _471  and  _472
REMARK  199  A    between atoms: _477  and  _479
REMARK  200  A    between atoms: _479  and  _480
REMARK  201  A    between atoms: _479  and  _482
REMARK  202  A    between atoms: _485  and  _487
REMARK  203  A    between atoms: _487  and  _488
REMARK  204  A    between atoms: _487  and  _490
REMARK  205  A    between atoms: _490  and  _491
REMARK  206  A    between atoms: _494  and  _496
REMARK  207  A    between atoms: _496  and  _497
REMARK  208  A    between atoms: _496  and  _499
REMARK  209  A    between atoms: _499  and  _500
REMARK  210  A    between atoms: _503  and  _505
REMARK  211  A    between atoms: _505  and  _506
REMARK  212  A    between atoms: _505  and  _508
REMARK  213  A    between atoms: _508  and  _509
REMARK  214  A    between atoms: _512  and  _514
REMARK  215  A    between atoms: _514  and  _515
REMARK  216  A    between atoms: _514  and  _517
REMARK  217  A    between atoms: _517  and  _518
REMARK  218  A    between atoms: _523  and  _525
REMARK  219  A    between atoms: _525  and  _526
REMARK  220  A    between atoms: _525  and  _528
REMARK  221  A    between atoms: _530  and  _532
REMARK  222  A    between atoms: _532  and  _533
REMARK  223  A    between atoms: _532  and  _535
REMARK  224  A    between atoms: _535  and  _536
REMARK  225  A    between atoms: _542  and  _544
REMARK  226  A    between atoms: _544  and  _545
REMARK  227  A    between atoms: _544  and  _547
REMARK  228  A    between atoms: _550  and  _552
REMARK  229  A    between atoms: _552  and  _553
REMARK  230  A    between atoms: _552  and  _555
REMARK  231  A    between atoms: _555  and  _556
REMARK  232  A    between atoms: _559  and  _561
REMARK  233  A    between atoms: _561  and  _562
REMARK  234  A    between atoms: _561  and  _564
REMARK  235  A    between atoms: _567  and  _569
REMARK  236  A    between atoms: _569  and  _570
REMARK  237  A    between atoms: _569  and  _572
REMARK  238  A    between atoms: _572  and  _573
REMARK  239  A    between atoms: _578  and  _579
REMARK  240  A    between atoms: _581  and  _583
REMARK  241  A    between atoms: _583  and  _584
REMARK                            x       y       z     vdW  Elec       q    Type
REMARK                         _______ _______ _______ _____ _____    ______ ____
ROOT
ATOM      1  O   HOH     1       7.186  32.150  29.036  0.00  0.00    +0.000 OA
ENDROOT
TORSDOF 0
REMARK  Name = ../refined-set-2016/3e3c/3e3c_pocket.pdb
REMARK  241 active torsions:
REMARK  status: ('A' for Active; 'I' for Inactive)
REMARK    1  A    between atoms: _1  and  _3
REMARK    2  A    between atoms: _3  and  _4
REMARK    3  A    between atoms: _3  and  _6
REMARK    4  A    between atoms: _6  and  _7
REMARK    5  A    between atoms: _9  and  _11
REMARK    6  A    between atoms: _11  and  _12
REMARK    7  A    between atoms: _11  and  _14
REMARK    8  A    between atoms: _14  and  _15
REMARK    9  A    between atoms: _15  and  _16
REMARK   10  A    between atoms: _18  and  _20
REMARK   11  A    between atoms: _20  and  _21
REMARK   12  A    between atoms: _20  and  _23
REMARK   13  A    between atoms: _23  and  _24
REMARK   14  A    between atoms: _27  and  _29
REMARK   15  A    between atoms: _29  and  _30
REMARK   16  A    between atoms: _29  and  _32
REMARK   17  A    between atoms: _32  and  _33
REMARK   18  A    between atoms: _36  and  _38
REMARK   19  A    between atoms: _38  and  _39
REMARK   20  A    between atoms: _38  and  _41
REMARK   21  A    between atoms: _41  and  _42
REMARK   22  A    between atoms: _48  and  _50
REMARK   23  A    between atoms: _50  and  _51
REMARK   24  A    between atoms: _50  and  _53
REMARK   25  A    between atoms: _53  and  _54
REMARK   26  A    between atoms: _57  and  _59
REMARK   27  A    between atoms: _59  and  _60
REMARK   28  A    between atoms: _59  and  _62
REMARK   29  A    between atoms: _62  and  _63
REMARK   30  A    between atoms: _65  and  _67
REMARK   31  A    between atoms: _67  and  _68
REMARK   32  A    between atoms: _67  and  _70
REMARK   33  A    between atoms: _70  and  _71
REMARK   34  A    between atoms: _73  and  _75
REMARK   35  A    between atoms: _75  and  _76
REMARK   36  A    between atoms: _75  and  _78
REMARK   37  A    between atoms: _80  and  _82
REMARK   38  A    between atoms: _82  and  _83
REMARK   39  A    between atoms: _85  and  _87
REMARK   40  A    between atoms: _87  and  _88
REMARK   41  A    between atoms: _87  and  _90
REMARK   42  A    between atoms: _90  and  _91
REMARK   43  A    between atoms: _91  and  _92
REMARK   44  A    between atoms: _95  and  _97
REMARK   45  A    between atoms: _97  and  _98
REMARK   46  A    between atoms: _100  and  _102
REMARK   47  A    between atoms: _102  and  _103
REMARK   48  A    between atoms: _102  and  _105
REMARK   49  A    between atoms: _105  and  _106
REMARK   50  A    between atoms: _109  and  _111
REMARK   51  A    between atoms: _111  and  _112
REMARK   52  A    between atoms: _111  and  _114
REMARK   53  A    between atoms: _114  and  _115
REMARK   54  A    between atoms: _118  and  _120
REMARK   55  A    between atoms: _120  and  _121
REMARK   56  A    between atoms: _120  and  _123
REMARK   57  A    between atoms: _123  and  _124
REMARK   58  A    between atoms: _127  and  _129
REMARK   59  A    between atoms: _129  and  _130
REMARK   60  A    between atoms: _129  and  _132
REMARK   61  A    between atoms: _132  and  _133
REMARK   62  A    between atoms: _133  and  _134
REMARK   63  A    between atoms: _134  and  _135
REMARK   64  A    between atoms: _135  and  _136
REMARK   65  A    between atoms: _140  and  _142
REMARK   66  A    between atoms: _142  and  _143
REMARK   67  A    between atoms: _142  and  _145
REMARK   68  A    between atoms: _145  and  _146
REMARK   69  A    between atoms: _149  and  _151
REMARK   70  A    between atoms: _151  and  _152
REMARK   71  A    between atoms: _151  and  _154
REMARK   72  A    between atoms: _154  and  _155
REMARK   73  A    between atoms: _158  and  _160
REMARK   74  A    between atoms: _160  and  _161
REMARK   75  A    between atoms: _163  and  _165
REMARK   76  A    between atoms: _165  and  _166
REMARK   77  A    between atoms: _168  and  _170
REMARK   78  A    between atoms: _170  and  _171
REMARK   79  A    between atoms: _170  and  _173
REMARK   80  A    between atoms: _173  and  _174
REMARK   81  A    between atoms: _177  and  _179
REMARK   82  A    between atoms: _179  and  _180
REMARK   83  A    between atoms: _179  and  _182
REMARK   84  A    between atoms: _182  and  _183
REMARK   85  A    between atoms: _186  and  _188
REMARK   86  A    between atoms: _188  and  _189
REMARK   87  A    between atoms: _192  and  _194
REMARK   88  A    between atoms: _194  and  _195
REMARK   89  A    between atoms: _194  and  _197
REMARK   90  A    between atoms: _197  and  _198
REMARK   91  A    between atoms: _200  and  _202
REMARK   92  A    between atoms: _202  and  _203
REMARK   93  A    between atoms: _202  and  _205
REMARK   94  A    between atoms: _208  and  _210
REMARK   95  A    between atoms: _210  and  _211
REMARK   96  A    between atoms: _210  and  _213
REMARK   97  A    between atoms: _213  and  _214
REMARK   98  A    between atoms: _219  and  _220
REMARK   99  A    between atoms: _222  and  _224
REMARK  100  A    between atoms: _224  and  _225
REMARK  101  A    between atoms: _224  and  _227
REMARK  102  A    between atoms: _227  and  _228
REMARK  103  A    between atoms: _228  and  _229
REMARK  104  A    between atoms: _234  and  _236
REMARK  105  A    between atoms: _236  and  _237
REMARK  106  A    between atoms: _239  and  _241
REMARK  107  A    between atoms: _241  and  _242
REMARK  108  A    between atoms: _241  and  _244
REMARK  109  A    between atoms: _244  and  _245
REMARK  110  A    between atoms: _248  and  _250
REMARK  111  A    between atoms: _250  and  _251
REMARK  112  A    between atoms: _250  and  _253
REMARK  113  A    between atoms: _253  and  _254
REMARK  114  A    between atoms: _257  and  _259
REMARK  115  A    between atoms: _259  and  _260
REMARK  116  A    between atoms: _259  and  _262
REMARK  117  A    between atoms: _262  and  _263
REMARK  118  A    between atoms: _266  and  _268
REMARK  119  A    between atoms: _268  and  _269
REMARK  120  A    between atoms: _268  and  _271
REMARK  121  A    between atoms: _271  and  _272
REMARK  122  A    between atoms: _277  and  _279
REMARK  123  A    between atoms: _279  and  _280
REMARK  124  A    between atoms: _279  and  _282
REMARK  125  A    between atoms: _285  and  _287
REMARK  126  A    between atoms: _287  and  _288
REMARK  127  A    between atoms: _287  and  _290
REMARK  128  A    between atoms: _290  and  _291
REMARK  129  A    between atoms: _296  and  _298
REMARK  130  A    between atoms: _298  and  _299
REMARK  131  A    between atoms: _298  and  _301
REMARK  132  A    between atoms: _301  and  _302
REMARK  133  A    between atoms: _302  and  _303
REMARK  134  A    between atoms: _303  and  _304
REMARK  135  A    between atoms: _313  and  _315
REMARK  136  A    between atoms: _315  and  _316
REMARK  137  A    between atoms: _315  and  _318
REMARK  138  A    between atoms: _318  and  _319
REMARK  139  A    between atoms: _324  and  _325
REMARK  140  A    between atoms: _327  and  _329
REMARK  141  A    between atoms: _329  and  _330
REMARK  142  A    between atoms: _329  and  _332
REMARK  143  A    between atoms: _332  and  _333
REMARK  144  A    between atoms: _338  and  _340
REMARK  145  A    between atoms: _340  and  _341
REMARK  146  A    between atoms: _340  and  _343
REMARK  147  A    between atoms: _343  and  _344
REMARK  148  A    between atoms: _348  and  _349
REMARK  149  A    between atoms: _354  and  _356
REMARK  150  A    between atoms: _356  and  _357
REMARK  151  A    between atoms: _356  and  _359
REMARK  152  A    between atoms: _359  and  _360
REMARK  153  A    between atoms: _362  and  _364
REMARK  154  A    between atoms: _364  and  _365
REMARK  155  A    between atoms: _364  and  _367
REMARK  156  A    between atoms: _370  and  _372
REMARK  157  A    between atoms: _372  and  _373
REMARK  158  A    between atoms: _372  and  _375
REMARK  159  A    between atoms: _375  and  _376
REMARK  160  A    between atoms: _379  and  _381
REMARK  161  A    between atoms: _381  and  _382
REMARK  162  A    between atoms: _381  and  _384
REMARK  163  A    between atoms: _384  and  _385
REMARK  164  A    between atoms: _390  and  _392
REMARK  165  A    between atoms: _392  and  _393
REMARK  166  A    between atoms: _392  and  _395
REMARK  167  A    between atoms: _395  and  _396
REMARK  168  A    between atoms: _399  and  _401
REMARK  169  A    between atoms: _401  and  _402
REMARK  170  A    between atoms: _401  and  _404
REMARK  171  A    between atoms: _404  and  _405
REMARK  172  A    between atoms: _405  and  _406
REMARK  173  A    between atoms: _409  and  _411
REMARK  174  A    between atoms: _411  and  _412
REMARK  175  A    between atoms: _411  and  _414
REMARK  176  A    between atoms: _414  and  _415
REMARK  177  A    between atoms: _415  and  _416
REMARK  178  A    between atoms: _421  and  _423
REMARK  179  A    between atoms: _423  and  _424
REMARK  180  A    between atoms: _423  and  _426
REMARK  181  A    between atoms: _426  and  _427
REMARK  182  A    between atoms: _430  and  _432
REMARK  183  A    between atoms: _432  and  _433
REMARK  184  A    between atoms: _432  and  _435
REMARK  185  A    between atoms: _435  and  _436
REMARK  186  A    between atoms: _441  and  _442
REMARK  187  A    between atoms: _444  and  _446
REMARK  188  A    between atoms: _446  and  _447
REMARK  189  A    between atoms: _446  and  _449
REMARK  190  A    between atoms: _449  and  _450
REMARK  191  A    between atoms: _453  and  _455
REMARK  192  A    between atoms: _455  and  _456
REMARK  193  A    between atoms: _455  and  _458
REMARK  194  A    between atoms: _461  and  _463
REMARK  195  A    between atoms: _463  and  _464
REMARK  196  A    between atoms: _463  and  _466
REMARK  197  A    between atoms: _466  and  _467
REMARK  198  A    between atoms: _471  and  _472
REMARK  199  A    between atoms: _477  and  _479
REMARK  200  A    between atoms: _479  and  _480
REMARK  201  A    between atoms: _479  and  _482
REMARK  202  A    between atoms: _485  and  _487
REMARK  203  A    between atoms: _487  and  _488
REMARK  204  A    between atoms: _487  and  _490
REMARK  205  A    between atoms: _490  and  _491
REMARK  206  A    between atoms: _494  and  _496
REMARK  207  A    between atoms: _496  and  _497
REMARK  208  A    between atoms: _496  and  _499
REMARK  209  A    between atoms: _499  and  _500
REMARK  210  A    between atoms: _503  and  _505
REMARK  211  A    between atoms: _505  and  _506
REMARK  212  A    between atoms: _505  and  _508
REMARK  213  A    between atoms: _508  and  _509
REMARK  214  A    between atoms: _512  and  _514
REMARK  215  A    between atoms: _514  and  _515
REMARK  216  A    between atoms: _514  and  _517
REMARK  217  A    between atoms: _517  and  _518
REMARK  218  A    between atoms: _523  and  _525
REMARK  219  A    between atoms: _525  and  _526
REMARK  220  A    between atoms: _525  and  _528
REMARK  221  A    between atoms: _530  and  _532
REMARK  222  A    between atoms: _532  and  _533
REMARK  223  A    between atoms: _532  and  _535
REMARK  224  A    between atoms: _535  and  _536
REMARK  225  A    between atoms: _542  and  _544
REMARK  226  A    between atoms: _544  and  _545
REMARK  227  A    between atoms: _544  and  _547
REMARK  228  A    between atoms: _550  and  _552
REMARK  229  A    between atoms: _552  and  _553
REMARK  230  A    between atoms: _552  and  _555
REMARK  231  A    between atoms: _555  and  _556
REMARK  232  A    between atoms: _559  and  _561
REMARK  233  A    between atoms: _561  and  _562
REMARK  234  A    between atoms: _561  and  _564
REMARK  235  A    between atoms: _567  and  _569
REMARK  236  A    between atoms: _569  and  _570
REMARK  237  A    between atoms: _569  and  _572
REMARK  238  A    between atoms: _572  and  _573
REMARK  239  A    between atoms: _578  and  _579
REMARK  240  A    between atoms: _581  and  _583
REMARK  241  A    between atoms: _583  and  _584
REMARK                            x       y       z     vdW  Elec       q    Type
REMARK                         _______ _______ _______ _____ _____    ______ ____
ROOT
ATOM      1  O   HOH     1       1.188  27.616  33.364  0.00  0.00    +0.000 OA
ENDROOT
TORSDOF 0
REMARK  Name = ../refined-set-2016/3e3c/3e3c_pocket.pdb
REMARK  241 active torsions:
REMARK  status: ('A' for Active; 'I' for Inactive)
REMARK    1  A    between atoms: _1  and  _3
REMARK    2  A    between atoms: _3  and  _4
REMARK    3  A    between atoms: _3  and  _6
REMARK    4  A    between atoms: _6  and  _7
REMARK    5  A    between atoms: _9  and  _11
REMARK    6  A    between atoms: _11  and  _12
REMARK    7  A    between atoms: _11  and  _14
REMARK    8  A    between atoms: _14  and  _15
REMARK    9  A    between atoms: _15  and  _16
REMARK   10  A    between atoms: _18  and  _20
REMARK   11  A    between atoms: _20  and  _21
REMARK   12  A    between atoms: _20  and  _23
REMARK   13  A    between atoms: _23  and  _24
REMARK   14  A    between atoms: _27  and  _29
REMARK   15  A    between atoms: _29  and  _30
REMARK   16  A    between atoms: _29  and  _32
REMARK   17  A    between atoms: _32  and  _33
REMARK   18  A    between atoms: _36  and  _38
REMARK   19  A    between atoms: _38  and  _39
REMARK   20  A    between atoms: _38  and  _41
REMARK   21  A    between atoms: _41  and  _42
REMARK   22  A    between atoms: _48  and  _50
REMARK   23  A    between atoms: _50  and  _51
REMARK   24  A    between atoms: _50  and  _53
REMARK   25  A    between atoms: _53  and  _54
REMARK   26  A    between atoms: _57  and  _59
REMARK   27  A    between atoms: _59  and  _60
REMARK   28  A    between atoms: _59  and  _62
REMARK   29  A    between atoms: _62  and  _63
REMARK   30  A    between atoms: _65  and  _67
REMARK   31  A    between atoms: _67  and  _68
REMARK   32  A    between atoms: _67  and  _70
REMARK   33  A    between atoms: _70  and  _71
REMARK   34  A    between atoms: _73  and  _75
REMARK   35  A    between atoms: _75  and  _76
REMARK   36  A    between atoms: _75  and  _78
REMARK   37  A    between atoms: _80  and  _82
REMARK   38  A    between atoms: _82  and  _83
REMARK   39  A    between atoms: _85  and  _87
REMARK   40  A    between atoms: _87  and  _88
REMARK   41  A    between atoms: _87  and  _90
REMARK   42  A    between atoms: _90  and  _91
REMARK   43  A    between atoms: _91  and  _92
REMARK   44  A    between atoms: _95  and  _97
REMARK   45  A    between atoms: _97  and  _98
REMARK   46  A    between atoms: _100  and  _102
REMARK   47  A    between atoms: _102  and  _103
REMARK   48  A    between atoms: _102  and  _105
REMARK   49  A    between atoms: _105  and  _106
REMARK   50  A    between atoms: _109  and  _111
REMARK   51  A    between atoms: _111  and  _112
REMARK   52  A    between atoms: _111  and  _114
REMARK   53  A    between atoms: _114  and  _115
REMARK   54  A    between atoms: _118  and  _120
REMARK   55  A    between atoms: _120  and  _121
REMARK   56  A    between atoms: _120  and  _123
REMARK   57  A    between atoms: _123  and  _124
REMARK   58  A    between atoms: _127  and  _129
REMARK   59  A    between atoms: _129  and  _130
REMARK   60  A    between atoms: _129  and  _132
REMARK   61  A    between atoms: _132  and  _133
REMARK   62  A    between atoms: _133  and  _134
REMARK   63  A    between atoms: _134  and  _135
REMARK   64  A    between atoms: _135  and  _136
REMARK   65  A    between atoms: _140  and  _142
REMARK   66  A    between atoms: _142  and  _143
REMARK   67  A    between atoms: _142  and  _145
REMARK   68  A    between atoms: _145  and  _146
REMARK   69  A    between atoms: _149  and  _151
REMARK   70  A    between atoms: _151  and  _152
REMARK   71  A    between atoms: _151  and  _154
REMARK   72  A    between atoms: _154  and  _155
REMARK   73  A    between atoms: _158  and  _160
REMARK   74  A    between atoms: _160  and  _161
REMARK   75  A    between atoms: _163  and  _165
REMARK   76  A    between atoms: _165  and  _166
REMARK   77  A    between atoms: _168  and  _170
REMARK   78  A    between atoms: _170  and  _171
REMARK   79  A    between atoms: _170  and  _173
REMARK   80  A    between atoms: _173  and  _174
REMARK   81  A    between atoms: _177  and  _179
REMARK   82  A    between atoms: _179  and  _180
REMARK   83  A    between atoms: _179  and  _182
REMARK   84  A    between atoms: _182  and  _183
REMARK   85  A    between atoms: _186  and  _188
REMARK   86  A    between atoms: _188  and  _189
REMARK   87  A    between atoms: _192  and  _194
REMARK   88  A    between atoms: _194  and  _195
REMARK   89  A    between atoms: _194  and  _197
REMARK   90  A    between atoms: _197  and  _198
REMARK   91  A    between atoms: _200  and  _202
REMARK   92  A    between atoms: _202  and  _203
REMARK   93  A    between atoms: _202  and  _205
REMARK   94  A    between atoms: _208  and  _210
REMARK   95  A    between atoms: _210  and  _211
REMARK   96  A    between atoms: _210  and  _213
REMARK   97  A    between atoms: _213  and  _214
REMARK   98  A    between atoms: _219  and  _220
REMARK   99  A    between atoms: _222  and  _224
REMARK  100  A    between atoms: _224  and  _225
REMARK  101  A    between atoms: _224  and  _227
REMARK  102  A    between atoms: _227  and  _228
REMARK  103  A    between atoms: _228  and  _229
REMARK  104  A    between atoms: _234  and  _236
REMARK  105  A    between atoms: _236  and  _237
REMARK  106  A    between atoms: _239  and  _241
REMARK  107  A    between atoms: _241  and  _242
REMARK  108  A    between atoms: _241  and  _244
REMARK  109  A    between atoms: _244  and  _245
REMARK  110  A    between atoms: _248  and  _250
REMARK  111  A    between atoms: _250  and  _251
REMARK  112  A    between atoms: _250  and  _253
REMARK  113  A    between atoms: _253  and  _254
REMARK  114  A    between atoms: _257  and  _259
REMARK  115  A    between atoms: _259  and  _260
REMARK  116  A    between atoms: _259  and  _262
REMARK  117  A    between atoms: _262  and  _263
REMARK  118  A    between atoms: _266  and  _268
REMARK  119  A    between atoms: _268  and  _269
REMARK  120  A    between atoms: _268  and  _271
REMARK  121  A    between atoms: _271  and  _272
REMARK  122  A    between atoms: _277  and  _279
REMARK  123  A    between atoms: _279  and  _280
REMARK  124  A    between atoms: _279  and  _282
REMARK  125  A    between atoms: _285  and  _287
REMARK  126  A    between atoms: _287  and  _288
REMARK  127  A    between atoms: _287  and  _290
REMARK  128  A    between atoms: _290  and  _291
REMARK  129  A    between atoms: _296  and  _298
REMARK  130  A    between atoms: _298  and  _299
REMARK  131  A    between atoms: _298  and  _301
REMARK  132  A    between atoms: _301  and  _302
REMARK  133  A    between atoms: _302  and  _303
REMARK  134  A    between atoms: _303  and  _304
REMARK  135  A    between atoms: _313  and  _315
REMARK  136  A    between atoms: _315  and  _316
REMARK  137  A    between atoms: _315  and  _318
REMARK  138  A    between atoms: _318  and  _319
REMARK  139  A    between atoms: _324  and  _325
REMARK  140  A    between atoms: _327  and  _329
REMARK  141  A    between atoms: _329  and  _330
REMARK  142  A    between atoms: _329  and  _332
REMARK  143  A    between atoms: _332  and  _333
REMARK  144  A    between atoms: _338  and  _340
REMARK  145  A    between atoms: _340  and  _341
REMARK  146  A    between atoms: _340  and  _343
REMARK  147  A    between atoms: _343  and  _344
REMARK  148  A    between atoms: _348  and  _349
REMARK  149  A    between atoms: _354  and  _356
REMARK  150  A    between atoms: _356  and  _357
REMARK  151  A    between atoms: _356  and  _359
REMARK  152  A    between atoms: _359  and  _360
REMARK  153  A    between atoms: _362  and  _364
REMARK  154  A    between atoms: _364  and  _365
REMARK  155  A    between atoms: _364  and  _367
REMARK  156  A    between atoms: _370  and  _372
REMARK  157  A    between atoms: _372  and  _373
REMARK  158  A    between atoms: _372  and  _375
REMARK  159  A    between atoms: _375  and  _376
REMARK  160  A    between atoms: _379  and  _381
REMARK  161  A    between atoms: _381  and  _382
REMARK  162  A    between atoms: _381  and  _384
REMARK  163  A    between atoms: _384  and  _385
REMARK  164  A    between atoms: _390  and  _392
REMARK  165  A    between atoms: _392  and  _393
REMARK  166  A    between atoms: _392  and  _395
REMARK  167  A    between atoms: _395  and  _396
REMARK  168  A    between atoms: _399  and  _401
REMARK  169  A    between atoms: _401  and  _402
REMARK  170  A    between atoms: _401  and  _404
REMARK  171  A    between atoms: _404  and  _405
REMARK  172  A    between atoms: _405  and  _406
REMARK  173  A    between atoms: _409  and  _411
REMARK  174  A    between atoms: _411  and  _412
REMARK  175  A    between atoms: _411  and  _414
REMARK  176  A    between atoms: _414  and  _415
REMARK  177  A    between atoms: _415  and  _416
REMARK  178  A    between atoms: _421  and  _423
REMARK  179  A    between atoms: _423  and  _424
REMARK  180  A    between atoms: _423  and  _426
REMARK  181  A    between atoms: _426  and  _427
REMARK  182  A    between atoms: _430  and  _432
REMARK  183  A    between atoms: _432  and  _433
REMARK  184  A    between atoms: _432  and  _435
REMARK  185  A    between atoms: _435  and  _436
REMARK  186  A    between atoms: _441  and  _442
REMARK  187  A    between atoms: _444  and  _446
REMARK  188  A    between atoms: _446  and  _447
REMARK  189  A    between atoms: _446  and  _449
REMARK  190  A    between atoms: _449  and  _450
REMARK  191  A    between atoms: _453  and  _455
REMARK  192  A    between atoms: _455  and  _456
REMARK  193  A    between atoms: _455  and  _458
REMARK  194  A    between atoms: _461  and  _463
REMARK  195  A    between atoms: _463  and  _464
REMARK  196  A    between atoms: _463  and  _466
REMARK  197  A    between atoms: _466  and  _467
REMARK  198  A    between atoms: _471  and  _472
REMARK  199  A    between atoms: _477  and  _479
REMARK  200  A    between atoms: _479  and  _480
REMARK  201  A    between atoms: _479  and  _482
REMARK  202  A    between atoms: _485  and  _487
REMARK  203  A    between atoms: _487  and  _488
REMARK  204  A    between atoms: _487  and  _490
REMARK  205  A    between atoms: _490  and  _491
REMARK  206  A    between atoms: _494  and  _496
REMARK  207  A    between atoms: _496  and  _497
REMARK  208  A    between atoms: _496  and  _499
REMARK  209  A    between atoms: _499  and  _500
REMARK  210  A    between atoms: _503  and  _505
REMARK  211  A    between atoms: _505  and  _506
REMARK  212  A    between atoms: _505  and  _508
REMARK  213  A    between atoms: _508  and  _509
REMARK  214  A    between atoms: _512  and  _514
REMARK  215  A    between atoms: _514  and  _515
REMARK  216  A    between atoms: _514  and  _517
REMARK  217  A    between atoms: _517  and  _518
REMARK  218  A    between atoms: _523  and  _525
REMARK  219  A    between atoms: _525  and  _526
REMARK  220  A    between atoms: _525  and  _528
REMARK  221  A    between atoms: _530  and  _532
REMARK  222  A    between atoms: _532  and  _533
REMARK  223  A    between atoms: _532  and  _535
REMARK  224  A    between atoms: _535  and  _536
REMARK  225  A    between atoms: _542  and  _544
REMARK  226  A    between atoms: _544  and  _545
REMARK  227  A    between atoms: _544  and  _547
REMARK  228  A    between atoms: _550  and  _552
REMARK  229  A    between atoms: _552  and  _553
REMARK  230  A    between atoms: _552  and  _555
REMARK  231  A    between atoms: _555  and  _556
REMARK  232  A    between atoms: _559  and  _561
REMARK  233  A    between atoms: _561  and  _562
REMARK  234  A    between atoms: _561  and  _564
REMARK  235  A    between atoms: _567  and  _569
REMARK  236  A    between atoms: _569  and  _570
REMARK  237  A    between atoms: _569  and  _572
REMARK  238  A    between atoms: _572  and  _573
REMARK  239  A    between atoms: _578  and  _579
REMARK  240  A    between atoms: _581  and  _583
REMARK  241  A    between atoms: _583  and  _584
REMARK                            x       y       z     vdW  Elec       q    Type
REMARK                         _______ _______ _______ _____ _____    ______ ____
ROOT
ATOM      1  O   HOH     1      -4.526  26.062  30.179  0.00  0.00    +0.000 OA
ENDROOT
TORSDOF 0
