REMARK  Name = ../refined-set-2016/2zcr/2zcr_pocket.pdb
REMARK  293 active torsions:
REMARK  status: ('A' for Active; 'I' for Inactive)
REMARK    1  A    between atoms: _1  and  _3
REMARK    2  A    between atoms: _3  and  _4
REMARK    3  A    between atoms: _3  and  _6
REMARK    4  A    between atoms: _6  and  _7
REMARK    5  A    between atoms: _7  and  _8
REMARK    6  A    between atoms: _10  and  _12
REMARK    7  A    between atoms: _12  and  _13
REMARK    8  A    between atoms: _12  and  _15
REMARK    9  A    between atoms: _15  and  _16
REMARK   10  A    between atoms: _21  and  _23
REMARK   11  A    between atoms: _23  and  _24
REMARK   12  A    between atoms: _23  and  _26
REMARK   13  A    between atoms: _26  and  _27
REMARK   14  A    between atoms: _29  and  _31
REMARK   15  A    between atoms: _31  and  _32
REMARK   16  A    between atoms: _31  and  _34
REMARK   17  A    between atoms: _34  and  _35
REMARK   18  A    between atoms: _35  and  _36
REMARK   19  A    between atoms: _36  and  _37
REMARK   20  A    between atoms: _37  and  _38
REMARK   21  A    between atoms: _42  and  _44
REMARK   22  A    between atoms: _44  and  _45
REMARK   23  A    between atoms: _44  and  _47
REMARK   24  A    between atoms: _47  and  _48
REMARK   25  A    between atoms: _50  and  _52
REMARK   26  A    between atoms: _52  and  _53
REMARK   27  A    between atoms: _52  and  _55
REMARK   28  A    between atoms: _55  and  _56
REMARK   29  A    between atoms: _62  and  _64
REMARK   30  A    between atoms: _64  and  _65
REMARK   31  A    between atoms: _68  and  _70
REMARK   32  A    between atoms: _70  and  _71
REMARK   33  A    between atoms: _70  and  _73
REMARK   34  A    between atoms: _73  and  _74
REMARK   35  A    between atoms: _80  and  _82
REMARK   36  A    between atoms: _82  and  _83
REMARK   37  A    between atoms: _82  and  _85
REMARK   38  A    between atoms: _85  and  _86
REMARK   39  A    between atoms: _89  and  _91
REMARK   40  A    between atoms: _91  and  _92
REMARK   41  A    between atoms: _91  and  _94
REMARK   42  A    between atoms: _97  and  _99
REMARK   43  A    between atoms: _99  and  _100
REMARK   44  A    between atoms: _99  and  _102
REMARK   45  A    between atoms: _102  and  _103
REMARK   46  A    between atoms: _106  and  _108
REMARK   47  A    between atoms: _108  and  _109
REMARK   48  A    between atoms: _108  and  _111
REMARK   49  A    between atoms: _111  and  _112
REMARK   50  A    between atoms: _117  and  _118
REMARK   51  A    between atoms: _120  and  _122
REMARK   52  A    between atoms: _122  and  _123
REMARK   53  A    between atoms: _122  and  _125
REMARK   54  A    between atoms: _127  and  _129
REMARK   55  A    between atoms: _129  and  _130
REMARK   56  A    between atoms: _129  and  _132
REMARK   57  A    between atoms: _132  and  _133
REMARK   58  A    between atoms: _133  and  _134
REMARK   59  A    between atoms: _134  and  _135
REMARK   60  A    between atoms: _144  and  _146
REMARK   61  A    between atoms: _146  and  _147
REMARK   62  A    between atoms: _146  and  _149
REMARK   63  A    between atoms: _149  and  _150
REMARK   64  A    between atoms: _153  and  _155
REMARK   65  A    between atoms: _155  and  _156
REMARK   66  A    between atoms: _155  and  _158
REMARK   67  A    between atoms: _158  and  _159
REMARK   68  A    between atoms: _162  and  _164
REMARK   69  A    between atoms: _164  and  _165
REMARK   70  A    between atoms: _164  and  _167
REMARK   71  A    between atoms: _167  and  _168
REMARK   72  A    between atoms: _171  and  _173
REMARK   73  A    between atoms: _173  and  _174
REMARK   74  A    between atoms: _173  and  _176
REMARK   75  A    between atoms: _179  and  _181
REMARK   76  A    between atoms: _181  and  _182
REMARK   77  A    between atoms: _181  and  _184
REMARK   78  A    between atoms: _184  and  _185
REMARK   79  A    between atoms: _188  and  _190
REMARK   80  A    between atoms: _190  and  _191
REMARK   81  A    between atoms: _190  and  _193
REMARK   82  A    between atoms: _193  and  _194
REMARK   83  A    between atoms: _199  and  _200
REMARK   84  A    between atoms: _202  and  _204
REMARK   85  A    between atoms: _204  and  _205
REMARK   86  A    between atoms: _204  and  _207
REMARK   87  A    between atoms: _209  and  _211
REMARK   88  A    between atoms: _211  and  _212
REMARK   89  A    between atoms: _211  and  _214
REMARK   90  A    between atoms: _217  and  _219
REMARK   91  A    between atoms: _219  and  _220
REMARK   92  A    between atoms: _223  and  _225
REMARK   93  A    between atoms: _225  and  _226
REMARK   94  A    between atoms: _228  and  _230
REMARK   95  A    between atoms: _230  and  _231
REMARK   96  A    between atoms: _230  and  _233
REMARK   97  A    between atoms: _233  and  _234
REMARK   98  A    between atoms: _237  and  _239
REMARK   99  A    between atoms: _239  and  _240
REMARK  100  A    between atoms: _239  and  _242
REMARK  101  A    between atoms: _245  and  _247
REMARK  102  A    between atoms: _247  and  _248
REMARK  103  A    between atoms: _250  and  _252
REMARK  104  A    between atoms: _252  and  _253
REMARK  105  A    between atoms: _252  and  _255
REMARK  106  A    between atoms: _255  and  _256
REMARK  107  A    between atoms: _256  and  _257
REMARK  108  A    between atoms: _260  and  _262
REMARK  109  A    between atoms: _262  and  _263
REMARK  110  A    between atoms: _262  and  _265
REMARK  111  A    between atoms: _268  and  _270
REMARK  112  A    between atoms: _270  and  _271
REMARK  113  A    between atoms: _270  and  _273
REMARK  114  A    between atoms: _273  and  _274
REMARK  115  A    between atoms: _277  and  _279
REMARK  116  A    between atoms: _279  and  _280
REMARK  117  A    between atoms: _279  and  _282
REMARK  118  A    between atoms: _282  and  _283
REMARK  119  A    between atoms: _286  and  _288
REMARK  120  A    between atoms: _288  and  _289
REMARK  121  A    between atoms: _288  and  _291
REMARK  122  A    between atoms: _291  and  _292
REMARK  123  A    between atoms: _295  and  _297
REMARK  124  A    between atoms: _297  and  _298
REMARK  125  A    between atoms: _297  and  _300
REMARK  126  A    between atoms: _300  and  _301
REMARK  127  A    between atoms: _304  and  _306
REMARK  128  A    between atoms: _306  and  _307
REMARK  129  A    between atoms: _306  and  _309
REMARK  130  A    between atoms: _309  and  _310
REMARK  131  A    between atoms: _312  and  _314
REMARK  132  A    between atoms: _314  and  _315
REMARK  133  A    between atoms: _314  and  _317
REMARK  134  A    between atoms: _317  and  _318
REMARK  135  A    between atoms: _321  and  _323
REMARK  136  A    between atoms: _323  and  _324
REMARK  137  A    between atoms: _323  and  _326
REMARK  138  A    between atoms: _326  and  _327
REMARK  139  A    between atoms: _332  and  _333
REMARK  140  A    between atoms: _335  and  _337
REMARK  141  A    between atoms: _337  and  _338
REMARK  142  A    between atoms: _337  and  _340
REMARK  143  A    between atoms: _343  and  _345
REMARK  144  A    between atoms: _345  and  _346
REMARK  145  A    between atoms: _349  and  _351
REMARK  146  A    between atoms: _351  and  _352
REMARK  147  A    between atoms: _351  and  _354
REMARK  148  A    between atoms: _354  and  _355
REMARK  149  A    between atoms: _355  and  _356
REMARK  150  A    between atoms: _356  and  _357
REMARK  151  A    between atoms: _366  and  _368
REMARK  152  A    between atoms: _368  and  _369
REMARK  153  A    between atoms: _368  and  _371
REMARK  154  A    between atoms: _371  and  _372
REMARK  155  A    between atoms: _372  and  _373
REMARK  156  A    between atoms: _373  and  _374
REMARK  157  A    between atoms: _383  and  _385
REMARK  158  A    between atoms: _385  and  _386
REMARK  159  A    between atoms: _385  and  _388
REMARK  160  A    between atoms: _388  and  _389
REMARK  161  A    between atoms: _392  and  _394
REMARK  162  A    between atoms: _394  and  _395
REMARK  163  A    between atoms: _397  and  _399
REMARK  164  A    between atoms: _399  and  _400
REMARK  165  A    between atoms: _399  and  _402
REMARK  166  A    between atoms: _402  and  _403
REMARK  167  A    between atoms: _403  and  _404
REMARK  168  A    between atoms: _407  and  _409
REMARK  169  A    between atoms: _409  and  _410
REMARK  170  A    between atoms: _409  and  _412
REMARK  171  A    between atoms: _412  and  _413
REMARK  172  A    between atoms: _415  and  _417
REMARK  173  A    between atoms: _417  and  _418
REMARK  174  A    between atoms: _417  and  _420
REMARK  175  A    between atoms: _420  and  _421
REMARK  176  A    between atoms: _424  and  _426
REMARK  177  A    between atoms: _426  and  _427
REMARK  178  A    between atoms: _426  and  _429
REMARK  179  A    between atoms: _429  and  _430
REMARK  180  A    between atoms: _430  and  _431
REMARK  181  A    between atoms: _436  and  _438
REMARK  182  A    between atoms: _438  and  _439
REMARK  183  A    between atoms: _438  and  _441
REMARK  184  A    between atoms: _441  and  _442
REMARK  185  A    between atoms: _445  and  _447
REMARK  186  A    between atoms: _447  and  _448
REMARK  187  A    between atoms: _447  and  _450
REMARK  188  A    between atoms: _450  and  _451
REMARK  189  A    between atoms: _454  and  _456
REMARK  190  A    between atoms: _456  and  _457
REMARK  191  A    between atoms: _456  and  _459
REMARK  192  A    between atoms: _459  and  _460
REMARK  193  A    between atoms: _460  and  _461
REMARK  194  A    between atoms: _460  and  _462
REMARK  195  A    between atoms: _461  and  MG_705
REMARK  196  A    between atoms: _465  and  _467
REMARK  197  A    between atoms: _467  and  _468
REMARK  198  A    between atoms: _467  and  _470
REMARK  199  A    between atoms: _470  and  _471
REMARK  200  A    between atoms: _474  and  _476
REMARK  201  A    between atoms: _476  and  _477
REMARK  202  A    between atoms: _476  and  _479
REMARK  203  A    between atoms: _479  and  _480
REMARK  204  A    between atoms: _480  and  _481
REMARK  205  A    between atoms: _481  and  _482
REMARK  206  A    between atoms: _491  and  _493
REMARK  207  A    between atoms: _493  and  _494
REMARK  208  A    between atoms: _493  and  _496
REMARK  209  A    between atoms: _496  and  _497
REMARK  210  A    between atoms: _497  and  _499
REMARK  211  A    between atoms: _499  and  MG_705
REMARK  212  A    between atoms: _500  and  _502
REMARK  213  A    between atoms: _502  and  _503
REMARK  214  A    between atoms: _502  and  _505
REMARK  215  A    between atoms: _505  and  _506
REMARK  216  A    between atoms: _506  and  _507
REMARK  217  A    between atoms: _510  and  _512
REMARK  218  A    between atoms: _512  and  _513
REMARK  219  A    between atoms: _512  and  _515
REMARK  220  A    between atoms: _515  and  _516
REMARK  221  A    between atoms: _519  and  _521
REMARK  222  A    between atoms: _521  and  _522
REMARK  223  A    between atoms: _521  and  _524
REMARK  224  A    between atoms: _524  and  _525
REMARK  225  A    between atoms: _530  and  _532
REMARK  226  A    between atoms: _532  and  _533
REMARK  227  A    between atoms: _532  and  _535
REMARK  228  A    between atoms: _535  and  _536
REMARK  229  A    between atoms: _536  and  _537
REMARK  230  A    between atoms: _537  and  _538
REMARK  231  A    between atoms: _547  and  _549
REMARK  232  A    between atoms: _549  and  _550
REMARK  233  A    between atoms: _549  and  _552
REMARK  234  A    between atoms: _552  and  _553
REMARK  235  A    between atoms: _558  and  _559
REMARK  236  A    between atoms: _561  and  _563
REMARK  237  A    between atoms: _563  and  _564
REMARK  238  A    between atoms: _563  and  _566
REMARK  239  A    between atoms: _569  and  _571
REMARK  240  A    between atoms: _571  and  _572
REMARK  241  A    between atoms: _571  and  _574
REMARK  242  A    between atoms: _574  and  _575
REMARK  243  A    between atoms: _575  and  _576
REMARK  244  A    between atoms: _578  and  _580
REMARK  245  A    between atoms: _580  and  _581
REMARK  246  A    between atoms: _580  and  _583
REMARK  247  A    between atoms: _583  and  _584
REMARK  248  A    between atoms: _587  and  _589
REMARK  249  A    between atoms: _589  and  _590
REMARK  250  A    between atoms: _589  and  _592
REMARK  251  A    between atoms: _595  and  _597
REMARK  252  A    between atoms: _597  and  _598
REMARK  253  A    between atoms: _597  and  _600
REMARK  254  A    between atoms: _600  and  _601
REMARK  255  A    between atoms: _607  and  _609
REMARK  256  A    between atoms: _609  and  _610
REMARK  257  A    between atoms: _613  and  _615
REMARK  258  A    between atoms: _615  and  _616
REMARK  259  A    between atoms: _615  and  _618
REMARK  260  A    between atoms: _618  and  _619
REMARK  261  A    between atoms: _619  and  _620
REMARK  262  A    between atoms: _625  and  _627
REMARK  263  A    between atoms: _627  and  _628
REMARK  264  A    between atoms: _627  and  _630
REMARK  265  A    between atoms: _630  and  _631
REMARK  266  A    between atoms: _634  and  _636
REMARK  267  A    between atoms: _636  and  _637
REMARK  268  A    between atoms: _636  and  _639
REMARK  269  A    between atoms: _639  and  _640
REMARK  270  A    between atoms: _643  and  _645
REMARK  271  A    between atoms: _645  and  _646
REMARK  272  A    between atoms: _645  and  _648
REMARK  273  A    between atoms: _648  and  _649
REMARK  274  A    between atoms: _649  and  _650
REMARK  275  A    between atoms: _653  and  _655
REMARK  276  A    between atoms: _655  and  _656
REMARK  277  A    between atoms: _659  and  _661
REMARK  278  A    between atoms: _661  and  _662
REMARK  279  A    between atoms: _665  and  _667
REMARK  280  A    between atoms: _667  and  _668
REMARK  281  A    between atoms: _667  and  _670
REMARK  282  A    between atoms: _670  and  _671
REMARK  283  A    between atoms: _676  and  _677
REMARK  284  A    between atoms: _679  and  _681
REMARK  285  A    between atoms: _681  and  _682
REMARK  286  A    between atoms: _681  and  _684
REMARK  287  A    between atoms: _684  and  _685
REMARK  288  A    between atoms: _688  and  _690
REMARK  289  A    between atoms: _690  and  _691
REMARK  290  A    between atoms: _690  and  _693
REMARK  291  A    between atoms: _693  and  _694
REMARK  292  A    between atoms: _694  and  _695
REMARK  293  A    between atoms: _695  and  _696
REMARK                            x       y       z     vdW  Elec       q    Type
REMARK                         _______ _______ _______ _____ _____    ______ ____
ROOT
ATOM      1  CA  MET A   1      18.075  52.160  47.313  0.00  0.00    +0.134 C 
ENDROOT
BRANCH   1   2
ATOM      2  N   MET A   1      18.076  50.968  48.151  0.00  0.00    -0.239 NA
ATOM      3  H   MET A   1      17.326  50.835  48.859  0.00  0.00    +0.142 HD
ENDBRANCH   1   2
BRANCH   1   4
ATOM      4  C   MET A   1      19.334  53.018  47.567  0.00  0.00    +0.224 C 
ATOM      5  O   MET A   1      19.992  53.447  46.628  0.00  0.00    -0.287 OA
ENDBRANCH   1   4
BRANCH   1   6
ATOM      6  CB  MET A   1      16.825  53.005  47.611  0.00  0.00    +0.037 C 
BRANCH   6   7
ATOM      7  CG  MET A   1      16.747  54.254  46.756  0.00  0.00    +0.059 C 
BRANCH   7   8
ATOM      8  SD  MET A   1      15.104  55.054  46.855  0.00  0.00    -0.139 S 
ATOM      9  CE  MET A   1      15.302  56.315  45.497  0.00  0.00    +0.069 C 
ENDBRANCH   7   8
ENDBRANCH   6   7
ENDBRANCH   1   6
TORSDOF 5
REMARK  Name = ../refined-set-2016/2zcr/2zcr_pocket.pdb
REMARK  293 active torsions:
REMARK  status: ('A' for Active; 'I' for Inactive)
REMARK    1  A    between atoms: _1  and  _3
REMARK    2  A    between atoms: _3  and  _4
REMARK    3  A    between atoms: _3  and  _6
REMARK    4  A    between atoms: _6  and  _7
REMARK    5  A    between atoms: _7  and  _8
REMARK    6  A    between atoms: _10  and  _12
REMARK    7  A    between atoms: _12  and  _13
REMARK    8  A    between atoms: _12  and  _15
REMARK    9  A    between atoms: _15  and  _16
REMARK   10  A    between atoms: _21  and  _23
REMARK   11  A    between atoms: _23  and  _24
REMARK   12  A    between atoms: _23  and  _26
REMARK   13  A    between atoms: _26  and  _27
REMARK   14  A    between atoms: _29  and  _31
REMARK   15  A    between atoms: _31  and  _32
REMARK   16  A    between atoms: _31  and  _34
REMARK   17  A    between atoms: _34  and  _35
REMARK   18  A    between atoms: _35  and  _36
REMARK   19  A    between atoms: _36  and  _37
REMARK   20  A    between atoms: _37  and  _38
REMARK   21  A    between atoms: _42  and  _44
REMARK   22  A    between atoms: _44  and  _45
REMARK   23  A    between atoms: _44  and  _47
REMARK   24  A    between atoms: _47  and  _48
REMARK   25  A    between atoms: _50  and  _52
REMARK   26  A    between atoms: _52  and  _53
REMARK   27  A    between atoms: _52  and  _55
REMARK   28  A    between atoms: _55  and  _56
REMARK   29  A    between atoms: _62  and  _64
REMARK   30  A    between atoms: _64  and  _65
REMARK   31  A    between atoms: _68  and  _70
REMARK   32  A    between atoms: _70  and  _71
REMARK   33  A    between atoms: _70  and  _73
REMARK   34  A    between atoms: _73  and  _74
REMARK   35  A    between atoms: _80  and  _82
REMARK   36  A    between atoms: _82  and  _83
REMARK   37  A    between atoms: _82  and  _85
REMARK   38  A    between atoms: _85  and  _86
REMARK   39  A    between atoms: _89  and  _91
REMARK   40  A    between atoms: _91  and  _92
REMARK   41  A    between atoms: _91  and  _94
REMARK   42  A    between atoms: _97  and  _99
REMARK   43  A    between atoms: _99  and  _100
REMARK   44  A    between atoms: _99  and  _102
REMARK   45  A    between atoms: _102  and  _103
REMARK   46  A    between atoms: _106  and  _108
REMARK   47  A    between atoms: _108  and  _109
REMARK   48  A    between atoms: _108  and  _111
REMARK   49  A    between atoms: _111  and  _112
REMARK   50  A    between atoms: _117  and  _118
REMARK   51  A    between atoms: _120  and  _122
REMARK   52  A    between atoms: _122  and  _123
REMARK   53  A    between atoms: _122  and  _125
REMARK   54  A    between atoms: _127  and  _129
REMARK   55  A    between atoms: _129  and  _130
REMARK   56  A    between atoms: _129  and  _132
REMARK   57  A    between atoms: _132  and  _133
REMARK   58  A    between atoms: _133  and  _134
REMARK   59  A    between atoms: _134  and  _135
REMARK   60  A    between atoms: _144  and  _146
REMARK   61  A    between atoms: _146  and  _147
REMARK   62  A    between atoms: _146  and  _149
REMARK   63  A    between atoms: _149  and  _150
REMARK   64  A    between atoms: _153  and  _155
REMARK   65  A    between atoms: _155  and  _156
REMARK   66  A    between atoms: _155  and  _158
REMARK   67  A    between atoms: _158  and  _159
REMARK   68  A    between atoms: _162  and  _164
REMARK   69  A    between atoms: _164  and  _165
REMARK   70  A    between atoms: _164  and  _167
REMARK   71  A    between atoms: _167  and  _168
REMARK   72  A    between atoms: _171  and  _173
REMARK   73  A    between atoms: _173  and  _174
REMARK   74  A    between atoms: _173  and  _176
REMARK   75  A    between atoms: _179  and  _181
REMARK   76  A    between atoms: _181  and  _182
REMARK   77  A    between atoms: _181  and  _184
REMARK   78  A    between atoms: _184  and  _185
REMARK   79  A    between atoms: _188  and  _190
REMARK   80  A    between atoms: _190  and  _191
REMARK   81  A    between atoms: _190  and  _193
REMARK   82  A    between atoms: _193  and  _194
REMARK   83  A    between atoms: _199  and  _200
REMARK   84  A    between atoms: _202  and  _204
REMARK   85  A    between atoms: _204  and  _205
REMARK   86  A    between atoms: _204  and  _207
REMARK   87  A    between atoms: _209  and  _211
REMARK   88  A    between atoms: _211  and  _212
REMARK   89  A    between atoms: _211  and  _214
REMARK   90  A    between atoms: _217  and  _219
REMARK   91  A    between atoms: _219  and  _220
REMARK   92  A    between atoms: _223  and  _225
REMARK   93  A    between atoms: _225  and  _226
REMARK   94  A    between atoms: _228  and  _230
REMARK   95  A    between atoms: _230  and  _231
REMARK   96  A    between atoms: _230  and  _233
REMARK   97  A    between atoms: _233  and  _234
REMARK   98  A    between atoms: _237  and  _239
REMARK   99  A    between atoms: _239  and  _240
REMARK  100  A    between atoms: _239  and  _242
REMARK  101  A    between atoms: _245  and  _247
REMARK  102  A    between atoms: _247  and  _248
REMARK  103  A    between atoms: _250  and  _252
REMARK  104  A    between atoms: _252  and  _253
REMARK  105  A    between atoms: _252  and  _255
REMARK  106  A    between atoms: _255  and  _256
REMARK  107  A    between atoms: _256  and  _257
REMARK  108  A    between atoms: _260  and  _262
REMARK  109  A    between atoms: _262  and  _263
REMARK  110  A    between atoms: _262  and  _265
REMARK  111  A    between atoms: _268  and  _270
REMARK  112  A    between atoms: _270  and  _271
REMARK  113  A    between atoms: _270  and  _273
REMARK  114  A    between atoms: _273  and  _274
REMARK  115  A    between atoms: _277  and  _279
REMARK  116  A    between atoms: _279  and  _280
REMARK  117  A    between atoms: _279  and  _282
REMARK  118  A    between atoms: _282  and  _283
REMARK  119  A    between atoms: _286  and  _288
REMARK  120  A    between atoms: _288  and  _289
REMARK  121  A    between atoms: _288  and  _291
REMARK  122  A    between atoms: _291  and  _292
REMARK  123  A    between atoms: _295  and  _297
REMARK  124  A    between atoms: _297  and  _298
REMARK  125  A    between atoms: _297  and  _300
REMARK  126  A    between atoms: _300  and  _301
REMARK  127  A    between atoms: _304  and  _306
REMARK  128  A    between atoms: _306  and  _307
REMARK  129  A    between atoms: _306  and  _309
REMARK  130  A    between atoms: _309  and  _310
REMARK  131  A    between atoms: _312  and  _314
REMARK  132  A    between atoms: _314  and  _315
REMARK  133  A    between atoms: _314  and  _317
REMARK  134  A    between atoms: _317  and  _318
REMARK  135  A    between atoms: _321  and  _323
REMARK  136  A    between atoms: _323  and  _324
REMARK  137  A    between atoms: _323  and  _326
REMARK  138  A    between atoms: _326  and  _327
REMARK  139  A    between atoms: _332  and  _333
REMARK  140  A    between atoms: _335  and  _337
REMARK  141  A    between atoms: _337  and  _338
REMARK  142  A    between atoms: _337  and  _340
REMARK  143  A    between atoms: _343  and  _345
REMARK  144  A    between atoms: _345  and  _346
REMARK  145  A    between atoms: _349  and  _351
REMARK  146  A    between atoms: _351  and  _352
REMARK  147  A    between atoms: _351  and  _354
REMARK  148  A    between atoms: _354  and  _355
REMARK  149  A    between atoms: _355  and  _356
REMARK  150  A    between atoms: _356  and  _357
REMARK  151  A    between atoms: _366  and  _368
REMARK  152  A    between atoms: _368  and  _369
REMARK  153  A    between atoms: _368  and  _371
REMARK  154  A    between atoms: _371  and  _372
REMARK  155  A    between atoms: _372  and  _373
REMARK  156  A    between atoms: _373  and  _374
REMARK  157  A    between atoms: _383  and  _385
REMARK  158  A    between atoms: _385  and  _386
REMARK  159  A    between atoms: _385  and  _388
REMARK  160  A    between atoms: _388  and  _389
REMARK  161  A    between atoms: _392  and  _394
REMARK  162  A    between atoms: _394  and  _395
REMARK  163  A    between atoms: _397  and  _399
REMARK  164  A    between atoms: _399  and  _400
REMARK  165  A    between atoms: _399  and  _402
REMARK  166  A    between atoms: _402  and  _403
REMARK  167  A    between atoms: _403  and  _404
REMARK  168  A    between atoms: _407  and  _409
REMARK  169  A    between atoms: _409  and  _410
REMARK  170  A    between atoms: _409  and  _412
REMARK  171  A    between atoms: _412  and  _413
REMARK  172  A    between atoms: _415  and  _417
REMARK  173  A    between atoms: _417  and  _418
REMARK  174  A    between atoms: _417  and  _420
REMARK  175  A    between atoms: _420  and  _421
REMARK  176  A    between atoms: _424  and  _426
REMARK  177  A    between atoms: _426  and  _427
REMARK  178  A    between atoms: _426  and  _429
REMARK  179  A    between atoms: _429  and  _430
REMARK  180  A    between atoms: _430  and  _431
REMARK  181  A    between atoms: _436  and  _438
REMARK  182  A    between atoms: _438  and  _439
REMARK  183  A    between atoms: _438  and  _441
REMARK  184  A    between atoms: _441  and  _442
REMARK  185  A    between atoms: _445  and  _447
REMARK  186  A    between atoms: _447  and  _448
REMARK  187  A    between atoms: _447  and  _450
REMARK  188  A    between atoms: _450  and  _451
REMARK  189  A    between atoms: _454  and  _456
REMARK  190  A    between atoms: _456  and  _457
REMARK  191  A    between atoms: _456  and  _459
REMARK  192  A    between atoms: _459  and  _460
REMARK  193  A    between atoms: _460  and  _461
REMARK  194  A    between atoms: _460  and  _462
REMARK  195  A    between atoms: _461  and  MG_705
REMARK  196  A    between atoms: _465  and  _467
REMARK  197  A    between atoms: _467  and  _468
REMARK  198  A    between atoms: _467  and  _470
REMARK  199  A    between atoms: _470  and  _471
REMARK  200  A    between atoms: _474  and  _476
REMARK  201  A    between atoms: _476  and  _477
REMARK  202  A    between atoms: _476  and  _479
REMARK  203  A    between atoms: _479  and  _480
REMARK  204  A    between atoms: _480  and  _481
REMARK  205  A    between atoms: _481  and  _482
REMARK  206  A    between atoms: _491  and  _493
REMARK  207  A    between atoms: _493  and  _494
REMARK  208  A    between atoms: _493  and  _496
REMARK  209  A    between atoms: _496  and  _497
REMARK  210  A    between atoms: _497  and  _499
REMARK  211  A    between atoms: _499  and  MG_705
REMARK  212  A    between atoms: _500  and  _502
REMARK  213  A    between atoms: _502  and  _503
REMARK  214  A    between atoms: _502  and  _505
REMARK  215  A    between atoms: _505  and  _506
REMARK  216  A    between atoms: _506  and  _507
REMARK  217  A    between atoms: _510  and  _512
REMARK  218  A    between atoms: _512  and  _513
REMARK  219  A    between atoms: _512  and  _515
REMARK  220  A    between atoms: _515  and  _516
REMARK  221  A    between atoms: _519  and  _521
REMARK  222  A    between atoms: _521  and  _522
REMARK  223  A    between atoms: _521  and  _524
REMARK  224  A    between atoms: _524  and  _525
REMARK  225  A    between atoms: _530  and  _532
REMARK  226  A    between atoms: _532  and  _533
REMARK  227  A    between atoms: _532  and  _535
REMARK  228  A    between atoms: _535  and  _536
REMARK  229  A    between atoms: _536  and  _537
REMARK  230  A    between atoms: _537  and  _538
REMARK  231  A    between atoms: _547  and  _549
REMARK  232  A    between atoms: _549  and  _550
REMARK  233  A    between atoms: _549  and  _552
REMARK  234  A    between atoms: _552  and  _553
REMARK  235  A    between atoms: _558  and  _559
REMARK  236  A    between atoms: _561  and  _563
REMARK  237  A    between atoms: _563  and  _564
REMARK  238  A    between atoms: _563  and  _566
REMARK  239  A    between atoms: _569  and  _571
REMARK  240  A    between atoms: _571  and  _572
REMARK  241  A    between atoms: _571  and  _574
REMARK  242  A    between atoms: _574  and  _575
REMARK  243  A    between atoms: _575  and  _576
REMARK  244  A    between atoms: _578  and  _580
REMARK  245  A    between atoms: _580  and  _581
REMARK  246  A    between atoms: _580  and  _583
REMARK  247  A    between atoms: _583  and  _584
REMARK  248  A    between atoms: _587  and  _589
REMARK  249  A    between atoms: _589  and  _590
REMARK  250  A    between atoms: _589  and  _592
REMARK  251  A    between atoms: _595  and  _597
REMARK  252  A    between atoms: _597  and  _598
REMARK  253  A    between atoms: _597  and  _600
REMARK  254  A    between atoms: _600  and  _601
REMARK  255  A    between atoms: _607  and  _609
REMARK  256  A    between atoms: _609  and  _610
REMARK  257  A    between atoms: _613  and  _615
REMARK  258  A    between atoms: _615  and  _616
REMARK  259  A    between atoms: _615  and  _618
REMARK  260  A    between atoms: _618  and  _619
REMARK  261  A    between atoms: _619  and  _620
REMARK  262  A    between atoms: _625  and  _627
REMARK  263  A    between atoms: _627  and  _628
REMARK  264  A    between atoms: _627  and  _630
REMARK  265  A    between atoms: _630  and  _631
REMARK  266  A    between atoms: _634  and  _636
REMARK  267  A    between atoms: _636  and  _637
REMARK  268  A    between atoms: _636  and  _639
REMARK  269  A    between atoms: _639  and  _640
REMARK  270  A    between atoms: _643  and  _645
REMARK  271  A    between atoms: _645  and  _646
REMARK  272  A    between atoms: _645  and  _648
REMARK  273  A    between atoms: _648  and  _649
REMARK  274  A    between atoms: _649  and  _650
REMARK  275  A    between atoms: _653  and  _655
REMARK  276  A    between atoms: _655  and  _656
REMARK  277  A    between atoms: _659  and  _661
REMARK  278  A    between atoms: _661  and  _662
REMARK  279  A    between atoms: _665  and  _667
REMARK  280  A    between atoms: _667  and  _668
REMARK  281  A    between atoms: _667  and  _670
REMARK  282  A    between atoms: _670  and  _671
REMARK  283  A    between atoms: _676  and  _677
REMARK  284  A    between atoms: _679  and  _681
REMARK  285  A    between atoms: _681  and  _682
REMARK  286  A    between atoms: _681  and  _684
REMARK  287  A    between atoms: _684  and  _685
REMARK  288  A    between atoms: _688  and  _690
REMARK  289  A    between atoms: _690  and  _691
REMARK  290  A    between atoms: _690  and  _693
REMARK  291  A    between atoms: _693  and  _694
REMARK  292  A    between atoms: _694  and  _695
REMARK  293  A    between atoms: _695  and  _696
REMARK                            x       y       z     vdW  Elec       q    Type
REMARK                         _______ _______ _______ _____ _____    ______ ____
ROOT
ATOM      1  CA  LYS A   3      23.432  58.057  46.696  0.00  0.00    +0.149 C 
ENDROOT
BRANCH   1   4
ATOM      2  C   SER A   2      22.209  56.420  45.411  0.00  0.00    +0.243 C 
ATOM      3  O   SER A   2      21.173  56.693  46.000  0.00  0.00    -0.273 OA
ATOM      4  N   LYS A   3      23.364  57.002  45.692  0.00  0.00    -0.297 N 
ATOM      5  H   LYS A   3      24.227  56.705  45.194  0.00  0.00    +0.150 HD
BRANCH   2   6
ATOM      6  CA  SER A   2      22.245  55.386  44.324  0.00  0.00    +0.178 C 
BRANCH   6   8
ATOM      7  C   HIS A   1      22.926  53.039  44.360  0.00  0.00    +0.239 C 
ATOM      8  N   SER A   2      22.135  54.012  44.823  0.00  0.00    -0.295 N 
ATOM      9  H   SER A   2      21.427  53.790  45.552  0.00  0.00    +0.150 HD
ATOM     10  O   HIS A   1      23.798  53.233  43.500  0.00  0.00    -0.274 OA
BRANCH   7  11
ATOM     11  CA  HIS A   1      22.706  51.626  44.908  0.00  0.00    +0.151 C 
BRANCH  11  12
ATOM     12  N   HIS A   1      22.537  51.498  46.348  0.00  0.00    -0.238 NA
ATOM     13  H   HIS A   1      21.592  51.350  46.756  0.00  0.00    +0.142 HD
ENDBRANCH  11  12
BRANCH  11  14
ATOM     14  CB  HIS A   1      21.519  50.992  44.176  0.00  0.00    +0.074 C 
BRANCH  14  15
ATOM     15  CG  HIS A   1      21.532  51.216  42.692  0.00  0.00    +0.082 A 
ATOM     16  ND1 HIS A   1      20.816  52.233  42.080  0.00  0.00    -0.227 NA
ATOM     17  CE1 HIS A   1      21.035  52.195  40.776  0.00  0.00    +0.199 A 
ATOM     18  NE2 HIS A   1      21.865  51.195  40.519  0.00  0.00    -0.221 NA
ATOM     19  CD2 HIS A   1      22.190  50.568  41.700  0.00  0.00    +0.115 A 
ENDBRANCH  14  15
ENDBRANCH  11  14
ENDBRANCH   7  11
ENDBRANCH   6   8
BRANCH   6  20
ATOM     20  CB  SER A   2      21.115  55.695  43.314  0.00  0.00    +0.166 C 
BRANCH  20  21
ATOM     21  OG  SER A   2      21.100  57.069  42.941  0.00  0.00    -0.380 OA
ATOM     22  H   SER A   2      20.959  57.627  43.747  0.00  0.00    +0.211 HD
ENDBRANCH  20  21
ENDBRANCH   6  20
ENDBRANCH   2   6
ENDBRANCH   1   4
BRANCH   1  23
ATOM     23  C   LYS A   3      22.665  59.262  46.179  0.00  0.00    +0.241 C 
ATOM     24  O   LYS A   3      22.101  60.028  46.966  0.00  0.00    -0.273 OA
ATOM     25  N   SER A   4      22.649  59.436  44.853  0.00  0.00    -0.295 N 
ATOM     26  H   SER A   4      23.136  58.756  44.235  0.00  0.00    +0.150 HD
BRANCH  25  27
ATOM     27  CA  SER A   4      21.947  60.583  44.267  0.00  0.00    +0.178 C 
BRANCH  27  28
ATOM     28  C   SER A   4      20.443  60.468  44.419  0.00  0.00    +0.243 C 
ATOM     29  O   SER A   4      19.796  61.401  44.895  0.00  0.00    -0.273 OA
ATOM     30  N   PHE A   5      19.858  59.332  44.037  0.00  0.00    -0.298 N 
ATOM     31  H   PHE A   5      20.420  58.534  43.677  0.00  0.00    +0.150 HD
BRANCH  30  32
ATOM     32  CA  PHE A   5      18.404  59.243  44.140  0.00  0.00    +0.141 C 
BRANCH  32  33
ATOM     33  C   PHE A   5      17.958  59.136  45.578  0.00  0.00    +0.227 C 
ATOM     34  O   PHE A   5      16.903  59.683  45.953  0.00  0.00    -0.286 OA
ENDBRANCH  32  33
BRANCH  32  35
ATOM     35  CB  PHE A   5      17.850  58.097  43.266  0.00  0.00    +0.054 C 
BRANCH  35  36
ATOM     36  CG  PHE A   5      18.135  58.288  41.785  0.00  0.00    -0.020 A 
ATOM     37  CD2 PHE A   5      17.847  59.499  41.173  0.00  0.00    -0.004 A 
ATOM     38  CE2 PHE A   5      18.124  59.710  39.838  0.00  0.00    -0.000 A 
ATOM     39  CZ  PHE A   5      18.688  58.718  39.073  0.00  0.00    -0.000 A 
ATOM     40  CE1 PHE A   5      18.992  57.460  39.667  0.00  0.00    -0.000 A 
ATOM     41  CD1 PHE A   5      18.707  57.276  41.027  0.00  0.00    -0.004 A 
ENDBRANCH  35  36
ENDBRANCH  32  35
ENDBRANCH  30  32
ENDBRANCH  27  28
BRANCH  27  42
ATOM     42  CB  SER A   4      22.265  60.747  42.767  0.00  0.00    +0.166 C 
BRANCH  42  43
ATOM     43  OG  SER A   4      23.656  60.813  42.501  0.00  0.00    -0.380 OA
ATOM     44  H   SER A   4      24.090  59.980  42.812  0.00  0.00    +0.211 HD
ENDBRANCH  42  43
ENDBRANCH  27  42
ENDBRANCH  25  27
ENDBRANCH   1  23
BRANCH   1  45
ATOM     45  CB  LYS A   3      24.897  58.437  46.944  0.00  0.00    +0.029 C 
BRANCH  45  46
ATOM     46  CG  LYS A   3      25.726  57.284  47.550  0.00  0.00    +0.000 C 
BRANCH  46  47
ATOM     47  CD  LYS A   3      25.120  56.821  48.869  0.00  0.00    -0.024 C 
BRANCH  47  48
ATOM     48  CE  LYS A   3      25.868  55.616  49.449  0.00  0.00    -0.086 C 
BRANCH  48  49
ATOM     49  NZ  LYS A   3      25.821  54.389  48.590  0.00  0.00    +0.380 N 
ATOM     50  HZ1 LYS A   3      26.349  53.622  49.053  0.00  0.00    -0.089 HD
ATOM     51  HZ2 LYS A   3      24.831  54.098  48.457  0.00  0.00    -0.089 HD
ATOM     52  HZ3 LYS A   3      26.250  54.598  47.666  0.00  0.00    -0.089 HD
ENDBRANCH  48  49
ENDBRANCH  47  48
ENDBRANCH  46  47
ENDBRANCH  45  46
ENDBRANCH   1  45
TORSDOF 23
REMARK  Name = ../refined-set-2016/2zcr/2zcr_pocket.pdb
REMARK  293 active torsions:
REMARK  status: ('A' for Active; 'I' for Inactive)
REMARK    1  A    between atoms: _1  and  _3
REMARK    2  A    between atoms: _3  and  _4
REMARK    3  A    between atoms: _3  and  _6
REMARK    4  A    between atoms: _6  and  _7
REMARK    5  A    between atoms: _7  and  _8
REMARK    6  A    between atoms: _10  and  _12
REMARK    7  A    between atoms: _12  and  _13
REMARK    8  A    between atoms: _12  and  _15
REMARK    9  A    between atoms: _15  and  _16
REMARK   10  A    between atoms: _21  and  _23
REMARK   11  A    between atoms: _23  and  _24
REMARK   12  A    between atoms: _23  and  _26
REMARK   13  A    between atoms: _26  and  _27
REMARK   14  A    between atoms: _29  and  _31
REMARK   15  A    between atoms: _31  and  _32
REMARK   16  A    between atoms: _31  and  _34
REMARK   17  A    between atoms: _34  and  _35
REMARK   18  A    between atoms: _35  and  _36
REMARK   19  A    between atoms: _36  and  _37
REMARK   20  A    between atoms: _37  and  _38
REMARK   21  A    between atoms: _42  and  _44
REMARK   22  A    between atoms: _44  and  _45
REMARK   23  A    between atoms: _44  and  _47
REMARK   24  A    between atoms: _47  and  _48
REMARK   25  A    between atoms: _50  and  _52
REMARK   26  A    between atoms: _52  and  _53
REMARK   27  A    between atoms: _52  and  _55
REMARK   28  A    between atoms: _55  and  _56
REMARK   29  A    between atoms: _62  and  _64
REMARK   30  A    between atoms: _64  and  _65
REMARK   31  A    between atoms: _68  and  _70
REMARK   32  A    between atoms: _70  and  _71
REMARK   33  A    between atoms: _70  and  _73
REMARK   34  A    between atoms: _73  and  _74
REMARK   35  A    between atoms: _80  and  _82
REMARK   36  A    between atoms: _82  and  _83
REMARK   37  A    between atoms: _82  and  _85
REMARK   38  A    between atoms: _85  and  _86
REMARK   39  A    between atoms: _89  and  _91
REMARK   40  A    between atoms: _91  and  _92
REMARK   41  A    between atoms: _91  and  _94
REMARK   42  A    between atoms: _97  and  _99
REMARK   43  A    between atoms: _99  and  _100
REMARK   44  A    between atoms: _99  and  _102
REMARK   45  A    between atoms: _102  and  _103
REMARK   46  A    between atoms: _106  and  _108
REMARK   47  A    between atoms: _108  and  _109
REMARK   48  A    between atoms: _108  and  _111
REMARK   49  A    between atoms: _111  and  _112
REMARK   50  A    between atoms: _117  and  _118
REMARK   51  A    between atoms: _120  and  _122
REMARK   52  A    between atoms: _122  and  _123
REMARK   53  A    between atoms: _122  and  _125
REMARK   54  A    between atoms: _127  and  _129
REMARK   55  A    between atoms: _129  and  _130
REMARK   56  A    between atoms: _129  and  _132
REMARK   57  A    between atoms: _132  and  _133
REMARK   58  A    between atoms: _133  and  _134
REMARK   59  A    between atoms: _134  and  _135
REMARK   60  A    between atoms: _144  and  _146
REMARK   61  A    between atoms: _146  and  _147
REMARK   62  A    between atoms: _146  and  _149
REMARK   63  A    between atoms: _149  and  _150
REMARK   64  A    between atoms: _153  and  _155
REMARK   65  A    between atoms: _155  and  _156
REMARK   66  A    between atoms: _155  and  _158
REMARK   67  A    between atoms: _158  and  _159
REMARK   68  A    between atoms: _162  and  _164
REMARK   69  A    between atoms: _164  and  _165
REMARK   70  A    between atoms: _164  and  _167
REMARK   71  A    between atoms: _167  and  _168
REMARK   72  A    between atoms: _171  and  _173
REMARK   73  A    between atoms: _173  and  _174
REMARK   74  A    between atoms: _173  and  _176
REMARK   75  A    between atoms: _179  and  _181
REMARK   76  A    between atoms: _181  and  _182
REMARK   77  A    between atoms: _181  and  _184
REMARK   78  A    between atoms: _184  and  _185
REMARK   79  A    between atoms: _188  and  _190
REMARK   80  A    between atoms: _190  and  _191
REMARK   81  A    between atoms: _190  and  _193
REMARK   82  A    between atoms: _193  and  _194
REMARK   83  A    between atoms: _199  and  _200
REMARK   84  A    between atoms: _202  and  _204
REMARK   85  A    between atoms: _204  and  _205
REMARK   86  A    between atoms: _204  and  _207
REMARK   87  A    between atoms: _209  and  _211
REMARK   88  A    between atoms: _211  and  _212
REMARK   89  A    between atoms: _211  and  _214
REMARK   90  A    between atoms: _217  and  _219
REMARK   91  A    between atoms: _219  and  _220
REMARK   92  A    between atoms: _223  and  _225
REMARK   93  A    between atoms: _225  and  _226
REMARK   94  A    between atoms: _228  and  _230
REMARK   95  A    between atoms: _230  and  _231
REMARK   96  A    between atoms: _230  and  _233
REMARK   97  A    between atoms: _233  and  _234
REMARK   98  A    between atoms: _237  and  _239
REMARK   99  A    between atoms: _239  and  _240
REMARK  100  A    between atoms: _239  and  _242
REMARK  101  A    between atoms: _245  and  _247
REMARK  102  A    between atoms: _247  and  _248
REMARK  103  A    between atoms: _250  and  _252
REMARK  104  A    between atoms: _252  and  _253
REMARK  105  A    between atoms: _252  and  _255
REMARK  106  A    between atoms: _255  and  _256
REMARK  107  A    between atoms: _256  and  _257
REMARK  108  A    between atoms: _260  and  _262
REMARK  109  A    between atoms: _262  and  _263
REMARK  110  A    between atoms: _262  and  _265
REMARK  111  A    between atoms: _268  and  _270
REMARK  112  A    between atoms: _270  and  _271
REMARK  113  A    between atoms: _270  and  _273
REMARK  114  A    between atoms: _273  and  _274
REMARK  115  A    between atoms: _277  and  _279
REMARK  116  A    between atoms: _279  and  _280
REMARK  117  A    between atoms: _279  and  _282
REMARK  118  A    between atoms: _282  and  _283
REMARK  119  A    between atoms: _286  and  _288
REMARK  120  A    between atoms: _288  and  _289
REMARK  121  A    between atoms: _288  and  _291
REMARK  122  A    between atoms: _291  and  _292
REMARK  123  A    between atoms: _295  and  _297
REMARK  124  A    between atoms: _297  and  _298
REMARK  125  A    between atoms: _297  and  _300
REMARK  126  A    between atoms: _300  and  _301
REMARK  127  A    between atoms: _304  and  _306
REMARK  128  A    between atoms: _306  and  _307
REMARK  129  A    between atoms: _306  and  _309
REMARK  130  A    between atoms: _309  and  _310
REMARK  131  A    between atoms: _312  and  _314
REMARK  132  A    between atoms: _314  and  _315
REMARK  133  A    between atoms: _314  and  _317
REMARK  134  A    between atoms: _317  and  _318
REMARK  135  A    between atoms: _321  and  _323
REMARK  136  A    between atoms: _323  and  _324
REMARK  137  A    between atoms: _323  and  _326
REMARK  138  A    between atoms: _326  and  _327
REMARK  139  A    between atoms: _332  and  _333
REMARK  140  A    between atoms: _335  and  _337
REMARK  141  A    between atoms: _337  and  _338
REMARK  142  A    between atoms: _337  and  _340
REMARK  143  A    between atoms: _343  and  _345
REMARK  144  A    between atoms: _345  and  _346
REMARK  145  A    between atoms: _349  and  _351
REMARK  146  A    between atoms: _351  and  _352
REMARK  147  A    between atoms: _351  and  _354
REMARK  148  A    between atoms: _354  and  _355
REMARK  149  A    between atoms: _355  and  _356
REMARK  150  A    between atoms: _356  and  _357
REMARK  151  A    between atoms: _366  and  _368
REMARK  152  A    between atoms: _368  and  _369
REMARK  153  A    between atoms: _368  and  _371
REMARK  154  A    between atoms: _371  and  _372
REMARK  155  A    between atoms: _372  and  _373
REMARK  156  A    between atoms: _373  and  _374
REMARK  157  A    between atoms: _383  and  _385
REMARK  158  A    between atoms: _385  and  _386
REMARK  159  A    between atoms: _385  and  _388
REMARK  160  A    between atoms: _388  and  _389
REMARK  161  A    between atoms: _392  and  _394
REMARK  162  A    between atoms: _394  and  _395
REMARK  163  A    between atoms: _397  and  _399
REMARK  164  A    between atoms: _399  and  _400
REMARK  165  A    between atoms: _399  and  _402
REMARK  166  A    between atoms: _402  and  _403
REMARK  167  A    between atoms: _403  and  _404
REMARK  168  A    between atoms: _407  and  _409
REMARK  169  A    between atoms: _409  and  _410
REMARK  170  A    between atoms: _409  and  _412
REMARK  171  A    between atoms: _412  and  _413
REMARK  172  A    between atoms: _415  and  _417
REMARK  173  A    between atoms: _417  and  _418
REMARK  174  A    between atoms: _417  and  _420
REMARK  175  A    between atoms: _420  and  _421
REMARK  176  A    between atoms: _424  and  _426
REMARK  177  A    between atoms: _426  and  _427
REMARK  178  A    between atoms: _426  and  _429
REMARK  179  A    between atoms: _429  and  _430
REMARK  180  A    between atoms: _430  and  _431
REMARK  181  A    between atoms: _436  and  _438
REMARK  182  A    between atoms: _438  and  _439
REMARK  183  A    between atoms: _438  and  _441
REMARK  184  A    between atoms: _441  and  _442
REMARK  185  A    between atoms: _445  and  _447
REMARK  186  A    between atoms: _447  and  _448
REMARK  187  A    between atoms: _447  and  _450
REMARK  188  A    between atoms: _450  and  _451
REMARK  189  A    between atoms: _454  and  _456
REMARK  190  A    between atoms: _456  and  _457
REMARK  191  A    between atoms: _456  and  _459
REMARK  192  A    between atoms: _459  and  _460
REMARK  193  A    between atoms: _460  and  _461
REMARK  194  A    between atoms: _460  and  _462
REMARK  195  A    between atoms: _461  and  MG_705
REMARK  196  A    between atoms: _465  and  _467
REMARK  197  A    between atoms: _467  and  _468
REMARK  198  A    between atoms: _467  and  _470
REMARK  199  A    between atoms: _470  and  _471
REMARK  200  A    between atoms: _474  and  _476
REMARK  201  A    between atoms: _476  and  _477
REMARK  202  A    between atoms: _476  and  _479
REMARK  203  A    between atoms: _479  and  _480
REMARK  204  A    between atoms: _480  and  _481
REMARK  205  A    between atoms: _481  and  _482
REMARK  206  A    between atoms: _491  and  _493
REMARK  207  A    between atoms: _493  and  _494
REMARK  208  A    between atoms: _493  and  _496
REMARK  209  A    between atoms: _496  and  _497
REMARK  210  A    between atoms: _497  and  _499
REMARK  211  A    between atoms: _499  and  MG_705
REMARK  212  A    between atoms: _500  and  _502
REMARK  213  A    between atoms: _502  and  _503
REMARK  214  A    between atoms: _502  and  _505
REMARK  215  A    between atoms: _505  and  _506
REMARK  216  A    between atoms: _506  and  _507
REMARK  217  A    between atoms: _510  and  _512
REMARK  218  A    between atoms: _512  and  _513
REMARK  219  A    between atoms: _512  and  _515
REMARK  220  A    between atoms: _515  and  _516
REMARK  221  A    between atoms: _519  and  _521
REMARK  222  A    between atoms: _521  and  _522
REMARK  223  A    between atoms: _521  and  _524
REMARK  224  A    between atoms: _524  and  _525
REMARK  225  A    between atoms: _530  and  _532
REMARK  226  A    between atoms: _532  and  _533
REMARK  227  A    between atoms: _532  and  _535
REMARK  228  A    between atoms: _535  and  _536
REMARK  229  A    between atoms: _536  and  _537
REMARK  230  A    between atoms: _537  and  _538
REMARK  231  A    between atoms: _547  and  _549
REMARK  232  A    between atoms: _549  and  _550
REMARK  233  A    between atoms: _549  and  _552
REMARK  234  A    between atoms: _552  and  _553
REMARK  235  A    between atoms: _558  and  _559
REMARK  236  A    between atoms: _561  and  _563
REMARK  237  A    between atoms: _563  and  _564
REMARK  238  A    between atoms: _563  and  _566
REMARK  239  A    between atoms: _569  and  _571
REMARK  240  A    between atoms: _571  and  _572
REMARK  241  A    between atoms: _571  and  _574
REMARK  242  A    between atoms: _574  and  _575
REMARK  243  A    between atoms: _575  and  _576
REMARK  244  A    between atoms: _578  and  _580
REMARK  245  A    between atoms: _580  and  _581
REMARK  246  A    between atoms: _580  and  _583
REMARK  247  A    between atoms: _583  and  _584
REMARK  248  A    between atoms: _587  and  _589
REMARK  249  A    between atoms: _589  and  _590
REMARK  250  A    between atoms: _589  and  _592
REMARK  251  A    between atoms: _595  and  _597
REMARK  252  A    between atoms: _597  and  _598
REMARK  253  A    between atoms: _597  and  _600
REMARK  254  A    between atoms: _600  and  _601
REMARK  255  A    between atoms: _607  and  _609
REMARK  256  A    between atoms: _609  and  _610
REMARK  257  A    between atoms: _613  and  _615
REMARK  258  A    between atoms: _615  and  _616
REMARK  259  A    between atoms: _615  and  _618
REMARK  260  A    between atoms: _618  and  _619
REMARK  261  A    between atoms: _619  and  _620
REMARK  262  A    between atoms: _625  and  _627
REMARK  263  A    between atoms: _627  and  _628
REMARK  264  A    between atoms: _627  and  _630
REMARK  265  A    between atoms: _630  and  _631
REMARK  266  A    between atoms: _634  and  _636
REMARK  267  A    between atoms: _636  and  _637
REMARK  268  A    between atoms: _636  and  _639
REMARK  269  A    between atoms: _639  and  _640
REMARK  270  A    between atoms: _643  and  _645
REMARK  271  A    between atoms: _645  and  _646
REMARK  272  A    between atoms: _645  and  _648
REMARK  273  A    between atoms: _648  and  _649
REMARK  274  A    between atoms: _649  and  _650
REMARK  275  A    between atoms: _653  and  _655
REMARK  276  A    between atoms: _655  and  _656
REMARK  277  A    between atoms: _659  and  _661
REMARK  278  A    between atoms: _661  and  _662
REMARK  279  A    between atoms: _665  and  _667
REMARK  280  A    between atoms: _667  and  _668
REMARK  281  A    between atoms: _667  and  _670
REMARK  282  A    between atoms: _670  and  _671
REMARK  283  A    between atoms: _676  and  _677
REMARK  284  A    between atoms: _679  and  _681
REMARK  285  A    between atoms: _681  and  _682
REMARK  286  A    between atoms: _681  and  _684
REMARK  287  A    between atoms: _684  and  _685
REMARK  288  A    between atoms: _688  and  _690
REMARK  289  A    between atoms: _690  and  _691
REMARK  290  A    between atoms: _690  and  _693
REMARK  291  A    between atoms: _693  and  _694
REMARK  292  A    between atoms: _694  and  _695
REMARK  293  A    between atoms: _695  and  _696
REMARK                            x       y       z     vdW  Elec       q    Type
REMARK                         _______ _______ _______ _____ _____    ______ ____
ROOT
ATOM      1  CA  PHE A   2      13.882  61.092  47.338  0.00  0.00    +0.141 C 
ENDROOT
BRANCH   1   4
ATOM      2  C   ALA A   1      15.411  62.960  47.240  0.00  0.00    +0.238 C 
ATOM      3  O   ALA A   1      14.640  63.653  47.924  0.00  0.00    -0.274 OA
ATOM      4  N   PHE A   2      15.151  61.694  46.937  0.00  0.00    -0.298 N 
ATOM      5  H   PHE A   2      15.851  61.130  46.414  0.00  0.00    +0.150 HD
BRANCH   2   6
ATOM      6  CA  ALA A   1      16.727  63.507  46.712  0.00  0.00    +0.145 C 
ATOM      7  CB  ALA A   1      16.684  63.567  45.189  0.00  0.00    +0.028 C 
BRANCH   6   8
ATOM      8  N   ALA A   1      17.899  62.717  47.123  0.00  0.00    -0.238 NA
ATOM      9  H   ALA A   1      18.375  62.106  46.429  0.00  0.00    +0.142 HD
ENDBRANCH   6   8
ENDBRANCH   2   6
ENDBRANCH   1   4
BRANCH   1  10
ATOM     10  C   PHE A   2      13.673  60.915  48.824  0.00  0.00    +0.227 C 
ATOM     11  O   PHE A   2      12.535  60.868  49.274  0.00  0.00    -0.286 OA
ENDBRANCH   1  10
BRANCH   1  12
ATOM     12  CB  PHE A   2      13.671  59.799  46.551  0.00  0.00    +0.054 C 
BRANCH  12  13
ATOM     13  CG  PHE A   2      13.373  60.053  45.077  0.00  0.00    -0.020 A 
ATOM     14  CD2 PHE A   2      12.227  60.778  44.710  0.00  0.00    -0.004 A 
ATOM     15  CE2 PHE A   2      11.938  61.062  43.368  0.00  0.00    -0.000 A 
ATOM     16  CZ  PHE A   2      12.799  60.620  42.361  0.00  0.00    -0.000 A 
ATOM     17  CE1 PHE A   2      13.948  59.887  42.711  0.00  0.00    -0.000 A 
ATOM     18  CD1 PHE A   2      14.228  59.610  44.074  0.00  0.00    -0.004 A 
ENDBRANCH  12  13
ENDBRANCH   1  12
TORSDOF 6
REMARK  Name = ../refined-set-2016/2zcr/2zcr_pocket.pdb
REMARK  293 active torsions:
REMARK  status: ('A' for Active; 'I' for Inactive)
REMARK    1  A    between atoms: _1  and  _3
REMARK    2  A    between atoms: _3  and  _4
REMARK    3  A    between atoms: _3  and  _6
REMARK    4  A    between atoms: _6  and  _7
REMARK    5  A    between atoms: _7  and  _8
REMARK    6  A    between atoms: _10  and  _12
REMARK    7  A    between atoms: _12  and  _13
REMARK    8  A    between atoms: _12  and  _15
REMARK    9  A    between atoms: _15  and  _16
REMARK   10  A    between atoms: _21  and  _23
REMARK   11  A    between atoms: _23  and  _24
REMARK   12  A    between atoms: _23  and  _26
REMARK   13  A    between atoms: _26  and  _27
REMARK   14  A    between atoms: _29  and  _31
REMARK   15  A    between atoms: _31  and  _32
REMARK   16  A    between atoms: _31  and  _34
REMARK   17  A    between atoms: _34  and  _35
REMARK   18  A    between atoms: _35  and  _36
REMARK   19  A    between atoms: _36  and  _37
REMARK   20  A    between atoms: _37  and  _38
REMARK   21  A    between atoms: _42  and  _44
REMARK   22  A    between atoms: _44  and  _45
REMARK   23  A    between atoms: _44  and  _47
REMARK   24  A    between atoms: _47  and  _48
REMARK   25  A    between atoms: _50  and  _52
REMARK   26  A    between atoms: _52  and  _53
REMARK   27  A    between atoms: _52  and  _55
REMARK   28  A    between atoms: _55  and  _56
REMARK   29  A    between atoms: _62  and  _64
REMARK   30  A    between atoms: _64  and  _65
REMARK   31  A    between atoms: _68  and  _70
REMARK   32  A    between atoms: _70  and  _71
REMARK   33  A    between atoms: _70  and  _73
REMARK   34  A    between atoms: _73  and  _74
REMARK   35  A    between atoms: _80  and  _82
REMARK   36  A    between atoms: _82  and  _83
REMARK   37  A    between atoms: _82  and  _85
REMARK   38  A    between atoms: _85  and  _86
REMARK   39  A    between atoms: _89  and  _91
REMARK   40  A    between atoms: _91  and  _92
REMARK   41  A    between atoms: _91  and  _94
REMARK   42  A    between atoms: _97  and  _99
REMARK   43  A    between atoms: _99  and  _100
REMARK   44  A    between atoms: _99  and  _102
REMARK   45  A    between atoms: _102  and  _103
REMARK   46  A    between atoms: _106  and  _108
REMARK   47  A    between atoms: _108  and  _109
REMARK   48  A    between atoms: _108  and  _111
REMARK   49  A    between atoms: _111  and  _112
REMARK   50  A    between atoms: _117  and  _118
REMARK   51  A    between atoms: _120  and  _122
REMARK   52  A    between atoms: _122  and  _123
REMARK   53  A    between atoms: _122  and  _125
REMARK   54  A    between atoms: _127  and  _129
REMARK   55  A    between atoms: _129  and  _130
REMARK   56  A    between atoms: _129  and  _132
REMARK   57  A    between atoms: _132  and  _133
REMARK   58  A    between atoms: _133  and  _134
REMARK   59  A    between atoms: _134  and  _135
REMARK   60  A    between atoms: _144  and  _146
REMARK   61  A    between atoms: _146  and  _147
REMARK   62  A    between atoms: _146  and  _149
REMARK   63  A    between atoms: _149  and  _150
REMARK   64  A    between atoms: _153  and  _155
REMARK   65  A    between atoms: _155  and  _156
REMARK   66  A    between atoms: _155  and  _158
REMARK   67  A    between atoms: _158  and  _159
REMARK   68  A    between atoms: _162  and  _164
REMARK   69  A    between atoms: _164  and  _165
REMARK   70  A    between atoms: _164  and  _167
REMARK   71  A    between atoms: _167  and  _168
REMARK   72  A    between atoms: _171  and  _173
REMARK   73  A    between atoms: _173  and  _174
REMARK   74  A    between atoms: _173  and  _176
REMARK   75  A    between atoms: _179  and  _181
REMARK   76  A    between atoms: _181  and  _182
REMARK   77  A    between atoms: _181  and  _184
REMARK   78  A    between atoms: _184  and  _185
REMARK   79  A    between atoms: _188  and  _190
REMARK   80  A    between atoms: _190  and  _191
REMARK   81  A    between atoms: _190  and  _193
REMARK   82  A    between atoms: _193  and  _194
REMARK   83  A    between atoms: _199  and  _200
REMARK   84  A    between atoms: _202  and  _204
REMARK   85  A    between atoms: _204  and  _205
REMARK   86  A    between atoms: _204  and  _207
REMARK   87  A    between atoms: _209  and  _211
REMARK   88  A    between atoms: _211  and  _212
REMARK   89  A    between atoms: _211  and  _214
REMARK   90  A    between atoms: _217  and  _219
REMARK   91  A    between atoms: _219  and  _220
REMARK   92  A    between atoms: _223  and  _225
REMARK   93  A    between atoms: _225  and  _226
REMARK   94  A    between atoms: _228  and  _230
REMARK   95  A    between atoms: _230  and  _231
REMARK   96  A    between atoms: _230  and  _233
REMARK   97  A    between atoms: _233  and  _234
REMARK   98  A    between atoms: _237  and  _239
REMARK   99  A    between atoms: _239  and  _240
REMARK  100  A    between atoms: _239  and  _242
REMARK  101  A    between atoms: _245  and  _247
REMARK  102  A    between atoms: _247  and  _248
REMARK  103  A    between atoms: _250  and  _252
REMARK  104  A    between atoms: _252  and  _253
REMARK  105  A    between atoms: _252  and  _255
REMARK  106  A    between atoms: _255  and  _256
REMARK  107  A    between atoms: _256  and  _257
REMARK  108  A    between atoms: _260  and  _262
REMARK  109  A    between atoms: _262  and  _263
REMARK  110  A    between atoms: _262  and  _265
REMARK  111  A    between atoms: _268  and  _270
REMARK  112  A    between atoms: _270  and  _271
REMARK  113  A    between atoms: _270  and  _273
REMARK  114  A    between atoms: _273  and  _274
REMARK  115  A    between atoms: _277  and  _279
REMARK  116  A    between atoms: _279  and  _280
REMARK  117  A    between atoms: _279  and  _282
REMARK  118  A    between atoms: _282  and  _283
REMARK  119  A    between atoms: _286  and  _288
REMARK  120  A    between atoms: _288  and  _289
REMARK  121  A    between atoms: _288  and  _291
REMARK  122  A    between atoms: _291  and  _292
REMARK  123  A    between atoms: _295  and  _297
REMARK  124  A    between atoms: _297  and  _298
REMARK  125  A    between atoms: _297  and  _300
REMARK  126  A    between atoms: _300  and  _301
REMARK  127  A    between atoms: _304  and  _306
REMARK  128  A    between atoms: _306  and  _307
REMARK  129  A    between atoms: _306  and  _309
REMARK  130  A    between atoms: _309  and  _310
REMARK  131  A    between atoms: _312  and  _314
REMARK  132  A    between atoms: _314  and  _315
REMARK  133  A    between atoms: _314  and  _317
REMARK  134  A    between atoms: _317  and  _318
REMARK  135  A    between atoms: _321  and  _323
REMARK  136  A    between atoms: _323  and  _324
REMARK  137  A    between atoms: _323  and  _326
REMARK  138  A    between atoms: _326  and  _327
REMARK  139  A    between atoms: _332  and  _333
REMARK  140  A    between atoms: _335  and  _337
REMARK  141  A    between atoms: _337  and  _338
REMARK  142  A    between atoms: _337  and  _340
REMARK  143  A    between atoms: _343  and  _345
REMARK  144  A    between atoms: _345  and  _346
REMARK  145  A    between atoms: _349  and  _351
REMARK  146  A    between atoms: _351  and  _352
REMARK  147  A    between atoms: _351  and  _354
REMARK  148  A    between atoms: _354  and  _355
REMARK  149  A    between atoms: _355  and  _356
REMARK  150  A    between atoms: _356  and  _357
REMARK  151  A    between atoms: _366  and  _368
REMARK  152  A    between atoms: _368  and  _369
REMARK  153  A    between atoms: _368  and  _371
REMARK  154  A    between atoms: _371  and  _372
REMARK  155  A    between atoms: _372  and  _373
REMARK  156  A    between atoms: _373  and  _374
REMARK  157  A    between atoms: _383  and  _385
REMARK  158  A    between atoms: _385  and  _386
REMARK  159  A    between atoms: _385  and  _388
REMARK  160  A    between atoms: _388  and  _389
REMARK  161  A    between atoms: _392  and  _394
REMARK  162  A    between atoms: _394  and  _395
REMARK  163  A    between atoms: _397  and  _399
REMARK  164  A    between atoms: _399  and  _400
REMARK  165  A    between atoms: _399  and  _402
REMARK  166  A    between atoms: _402  and  _403
REMARK  167  A    between atoms: _403  and  _404
REMARK  168  A    between atoms: _407  and  _409
REMARK  169  A    between atoms: _409  and  _410
REMARK  170  A    between atoms: _409  and  _412
REMARK  171  A    between atoms: _412  and  _413
REMARK  172  A    between atoms: _415  and  _417
REMARK  173  A    between atoms: _417  and  _418
REMARK  174  A    between atoms: _417  and  _420
REMARK  175  A    between atoms: _420  and  _421
REMARK  176  A    between atoms: _424  and  _426
REMARK  177  A    between atoms: _426  and  _427
REMARK  178  A    between atoms: _426  and  _429
REMARK  179  A    between atoms: _429  and  _430
REMARK  180  A    between atoms: _430  and  _431
REMARK  181  A    between atoms: _436  and  _438
REMARK  182  A    between atoms: _438  and  _439
REMARK  183  A    between atoms: _438  and  _441
REMARK  184  A    between atoms: _441  and  _442
REMARK  185  A    between atoms: _445  and  _447
REMARK  186  A    between atoms: _447  and  _448
REMARK  187  A    between atoms: _447  and  _450
REMARK  188  A    between atoms: _450  and  _451
REMARK  189  A    between atoms: _454  and  _456
REMARK  190  A    between atoms: _456  and  _457
REMARK  191  A    between atoms: _456  and  _459
REMARK  192  A    between atoms: _459  and  _460
REMARK  193  A    between atoms: _460  and  _461
REMARK  194  A    between atoms: _460  and  _462
REMARK  195  A    between atoms: _461  and  MG_705
REMARK  196  A    between atoms: _465  and  _467
REMARK  197  A    between atoms: _467  and  _468
REMARK  198  A    between atoms: _467  and  _470
REMARK  199  A    between atoms: _470  and  _471
REMARK  200  A    between atoms: _474  and  _476
REMARK  201  A    between atoms: _476  and  _477
REMARK  202  A    between atoms: _476  and  _479
REMARK  203  A    between atoms: _479  and  _480
REMARK  204  A    between atoms: _480  and  _481
REMARK  205  A    between atoms: _481  and  _482
REMARK  206  A    between atoms: _491  and  _493
REMARK  207  A    between atoms: _493  and  _494
REMARK  208  A    between atoms: _493  and  _496
REMARK  209  A    between atoms: _496  and  _497
REMARK  210  A    between atoms: _497  and  _499
REMARK  211  A    between atoms: _499  and  MG_705
REMARK  212  A    between atoms: _500  and  _502
REMARK  213  A    between atoms: _502  and  _503
REMARK  214  A    between atoms: _502  and  _505
REMARK  215  A    between atoms: _505  and  _506
REMARK  216  A    between atoms: _506  and  _507
REMARK  217  A    between atoms: _510  and  _512
REMARK  218  A    between atoms: _512  and  _513
REMARK  219  A    between atoms: _512  and  _515
REMARK  220  A    between atoms: _515  and  _516
REMARK  221  A    between atoms: _519  and  _521
REMARK  222  A    between atoms: _521  and  _522
REMARK  223  A    between atoms: _521  and  _524
REMARK  224  A    between atoms: _524  and  _525
REMARK  225  A    between atoms: _530  and  _532
REMARK  226  A    between atoms: _532  and  _533
REMARK  227  A    between atoms: _532  and  _535
REMARK  228  A    between atoms: _535  and  _536
REMARK  229  A    between atoms: _536  and  _537
REMARK  230  A    between atoms: _537  and  _538
REMARK  231  A    between atoms: _547  and  _549
REMARK  232  A    between atoms: _549  and  _550
REMARK  233  A    between atoms: _549  and  _552
REMARK  234  A    between atoms: _552  and  _553
REMARK  235  A    between atoms: _558  and  _559
REMARK  236  A    between atoms: _561  and  _563
REMARK  237  A    between atoms: _563  and  _564
REMARK  238  A    between atoms: _563  and  _566
REMARK  239  A    between atoms: _569  and  _571
REMARK  240  A    between atoms: _571  and  _572
REMARK  241  A    between atoms: _571  and  _574
REMARK  242  A    between atoms: _574  and  _575
REMARK  243  A    between atoms: _575  and  _576
REMARK  244  A    between atoms: _578  and  _580
REMARK  245  A    between atoms: _580  and  _581
REMARK  246  A    between atoms: _580  and  _583
REMARK  247  A    between atoms: _583  and  _584
REMARK  248  A    between atoms: _587  and  _589
REMARK  249  A    between atoms: _589  and  _590
REMARK  250  A    between atoms: _589  and  _592
REMARK  251  A    between atoms: _595  and  _597
REMARK  252  A    between atoms: _597  and  _598
REMARK  253  A    between atoms: _597  and  _600
REMARK  254  A    between atoms: _600  and  _601
REMARK  255  A    between atoms: _607  and  _609
REMARK  256  A    between atoms: _609  and  _610
REMARK  257  A    between atoms: _613  and  _615
REMARK  258  A    between atoms: _615  and  _616
REMARK  259  A    between atoms: _615  and  _618
REMARK  260  A    between atoms: _618  and  _619
REMARK  261  A    between atoms: _619  and  _620
REMARK  262  A    between atoms: _625  and  _627
REMARK  263  A    between atoms: _627  and  _628
REMARK  264  A    between atoms: _627  and  _630
REMARK  265  A    between atoms: _630  and  _631
REMARK  266  A    between atoms: _634  and  _636
REMARK  267  A    between atoms: _636  and  _637
REMARK  268  A    between atoms: _636  and  _639
REMARK  269  A    between atoms: _639  and  _640
REMARK  270  A    between atoms: _643  and  _645
REMARK  271  A    between atoms: _645  and  _646
REMARK  272  A    between atoms: _645  and  _648
REMARK  273  A    between atoms: _648  and  _649
REMARK  274  A    between atoms: _649  and  _650
REMARK  275  A    between atoms: _653  and  _655
REMARK  276  A    between atoms: _655  and  _656
REMARK  277  A    between atoms: _659  and  _661
REMARK  278  A    between atoms: _661  and  _662
REMARK  279  A    between atoms: _665  and  _667
REMARK  280  A    between atoms: _667  and  _668
REMARK  281  A    between atoms: _667  and  _670
REMARK  282  A    between atoms: _670  and  _671
REMARK  283  A    between atoms: _676  and  _677
REMARK  284  A    between atoms: _679  and  _681
REMARK  285  A    between atoms: _681  and  _682
REMARK  286  A    between atoms: _681  and  _684
REMARK  287  A    between atoms: _684  and  _685
REMARK  288  A    between atoms: _688  and  _690
REMARK  289  A    between atoms: _690  and  _691
REMARK  290  A    between atoms: _690  and  _693
REMARK  291  A    between atoms: _693  and  _694
REMARK  292  A    between atoms: _694  and  _695
REMARK  293  A    between atoms: _695  and  _696
REMARK                            x       y       z     vdW  Elec       q    Type
REMARK                         _______ _______ _______ _____ _____    ______ ____
ROOT
ATOM      1  CA  LEU A   1       9.771  63.426  50.437  0.00  0.00    +0.133 C 
ENDROOT
BRANCH   1   2
ATOM      2  N   LEU A   1      11.227  63.419  50.580  0.00  0.00    -0.239 NA
ATOM      3  H   LEU A   1      11.782  62.608  50.241  0.00  0.00    +0.142 HD
ENDBRANCH   1   2
BRANCH   1   4
ATOM      4  C   LEU A   1       9.087  63.163  51.766  0.00  0.00    +0.224 C 
ATOM      5  O   LEU A   1       9.715  62.726  52.726  0.00  0.00    -0.287 OA
ENDBRANCH   1   4
BRANCH   1   6
ATOM      6  CB  LEU A   1       9.313  62.331  49.442  0.00  0.00    +0.025 C 
BRANCH   6   7
ATOM      7  CG  LEU A   1       9.577  62.531  47.948  0.00  0.00    +0.002 C 
ATOM      8  CD2 LEU A   1       8.492  63.459  47.381  0.00  0.00    +0.000 C 
ATOM      9  CD1 LEU A   1       9.569  61.159  47.206  0.00  0.00    +0.000 C 
ENDBRANCH   6   7
ENDBRANCH   1   6
TORSDOF 4
REMARK  Name = ../refined-set-2016/2zcr/2zcr_pocket.pdb
REMARK  293 active torsions:
REMARK  status: ('A' for Active; 'I' for Inactive)
REMARK    1  A    between atoms: _1  and  _3
REMARK    2  A    between atoms: _3  and  _4
REMARK    3  A    between atoms: _3  and  _6
REMARK    4  A    between atoms: _6  and  _7
REMARK    5  A    between atoms: _7  and  _8
REMARK    6  A    between atoms: _10  and  _12
REMARK    7  A    between atoms: _12  and  _13
REMARK    8  A    between atoms: _12  and  _15
REMARK    9  A    between atoms: _15  and  _16
REMARK   10  A    between atoms: _21  and  _23
REMARK   11  A    between atoms: _23  and  _24
REMARK   12  A    between atoms: _23  and  _26
REMARK   13  A    between atoms: _26  and  _27
REMARK   14  A    between atoms: _29  and  _31
REMARK   15  A    between atoms: _31  and  _32
REMARK   16  A    between atoms: _31  and  _34
REMARK   17  A    between atoms: _34  and  _35
REMARK   18  A    between atoms: _35  and  _36
REMARK   19  A    between atoms: _36  and  _37
REMARK   20  A    between atoms: _37  and  _38
REMARK   21  A    between atoms: _42  and  _44
REMARK   22  A    between atoms: _44  and  _45
REMARK   23  A    between atoms: _44  and  _47
REMARK   24  A    between atoms: _47  and  _48
REMARK   25  A    between atoms: _50  and  _52
REMARK   26  A    between atoms: _52  and  _53
REMARK   27  A    between atoms: _52  and  _55
REMARK   28  A    between atoms: _55  and  _56
REMARK   29  A    between atoms: _62  and  _64
REMARK   30  A    between atoms: _64  and  _65
REMARK   31  A    between atoms: _68  and  _70
REMARK   32  A    between atoms: _70  and  _71
REMARK   33  A    between atoms: _70  and  _73
REMARK   34  A    between atoms: _73  and  _74
REMARK   35  A    between atoms: _80  and  _82
REMARK   36  A    between atoms: _82  and  _83
REMARK   37  A    between atoms: _82  and  _85
REMARK   38  A    between atoms: _85  and  _86
REMARK   39  A    between atoms: _89  and  _91
REMARK   40  A    between atoms: _91  and  _92
REMARK   41  A    between atoms: _91  and  _94
REMARK   42  A    between atoms: _97  and  _99
REMARK   43  A    between atoms: _99  and  _100
REMARK   44  A    between atoms: _99  and  _102
REMARK   45  A    between atoms: _102  and  _103
REMARK   46  A    between atoms: _106  and  _108
REMARK   47  A    between atoms: _108  and  _109
REMARK   48  A    between atoms: _108  and  _111
REMARK   49  A    between atoms: _111  and  _112
REMARK   50  A    between atoms: _117  and  _118
REMARK   51  A    between atoms: _120  and  _122
REMARK   52  A    between atoms: _122  and  _123
REMARK   53  A    between atoms: _122  and  _125
REMARK   54  A    between atoms: _127  and  _129
REMARK   55  A    between atoms: _129  and  _130
REMARK   56  A    between atoms: _129  and  _132
REMARK   57  A    between atoms: _132  and  _133
REMARK   58  A    between atoms: _133  and  _134
REMARK   59  A    between atoms: _134  and  _135
REMARK   60  A    between atoms: _144  and  _146
REMARK   61  A    between atoms: _146  and  _147
REMARK   62  A    between atoms: _146  and  _149
REMARK   63  A    between atoms: _149  and  _150
REMARK   64  A    between atoms: _153  and  _155
REMARK   65  A    between atoms: _155  and  _156
REMARK   66  A    between atoms: _155  and  _158
REMARK   67  A    between atoms: _158  and  _159
REMARK   68  A    between atoms: _162  and  _164
REMARK   69  A    between atoms: _164  and  _165
REMARK   70  A    between atoms: _164  and  _167
REMARK   71  A    between atoms: _167  and  _168
REMARK   72  A    between atoms: _171  and  _173
REMARK   73  A    between atoms: _173  and  _174
REMARK   74  A    between atoms: _173  and  _176
REMARK   75  A    between atoms: _179  and  _181
REMARK   76  A    between atoms: _181  and  _182
REMARK   77  A    between atoms: _181  and  _184
REMARK   78  A    between atoms: _184  and  _185
REMARK   79  A    between atoms: _188  and  _190
REMARK   80  A    between atoms: _190  and  _191
REMARK   81  A    between atoms: _190  and  _193
REMARK   82  A    between atoms: _193  and  _194
REMARK   83  A    between atoms: _199  and  _200
REMARK   84  A    between atoms: _202  and  _204
REMARK   85  A    between atoms: _204  and  _205
REMARK   86  A    between atoms: _204  and  _207
REMARK   87  A    between atoms: _209  and  _211
REMARK   88  A    between atoms: _211  and  _212
REMARK   89  A    between atoms: _211  and  _214
REMARK   90  A    between atoms: _217  and  _219
REMARK   91  A    between atoms: _219  and  _220
REMARK   92  A    between atoms: _223  and  _225
REMARK   93  A    between atoms: _225  and  _226
REMARK   94  A    between atoms: _228  and  _230
REMARK   95  A    between atoms: _230  and  _231
REMARK   96  A    between atoms: _230  and  _233
REMARK   97  A    between atoms: _233  and  _234
REMARK   98  A    between atoms: _237  and  _239
REMARK   99  A    between atoms: _239  and  _240
REMARK  100  A    between atoms: _239  and  _242
REMARK  101  A    between atoms: _245  and  _247
REMARK  102  A    between atoms: _247  and  _248
REMARK  103  A    between atoms: _250  and  _252
REMARK  104  A    between atoms: _252  and  _253
REMARK  105  A    between atoms: _252  and  _255
REMARK  106  A    between atoms: _255  and  _256
REMARK  107  A    between atoms: _256  and  _257
REMARK  108  A    between atoms: _260  and  _262
REMARK  109  A    between atoms: _262  and  _263
REMARK  110  A    between atoms: _262  and  _265
REMARK  111  A    between atoms: _268  and  _270
REMARK  112  A    between atoms: _270  and  _271
REMARK  113  A    between atoms: _270  and  _273
REMARK  114  A    between atoms: _273  and  _274
REMARK  115  A    between atoms: _277  and  _279
REMARK  116  A    between atoms: _279  and  _280
REMARK  117  A    between atoms: _279  and  _282
REMARK  118  A    between atoms: _282  and  _283
REMARK  119  A    between atoms: _286  and  _288
REMARK  120  A    between atoms: _288  and  _289
REMARK  121  A    between atoms: _288  and  _291
REMARK  122  A    between atoms: _291  and  _292
REMARK  123  A    between atoms: _295  and  _297
REMARK  124  A    between atoms: _297  and  _298
REMARK  125  A    between atoms: _297  and  _300
REMARK  126  A    between atoms: _300  and  _301
REMARK  127  A    between atoms: _304  and  _306
REMARK  128  A    between atoms: _306  and  _307
REMARK  129  A    between atoms: _306  and  _309
REMARK  130  A    between atoms: _309  and  _310
REMARK  131  A    between atoms: _312  and  _314
REMARK  132  A    between atoms: _314  and  _315
REMARK  133  A    between atoms: _314  and  _317
REMARK  134  A    between atoms: _317  and  _318
REMARK  135  A    between atoms: _321  and  _323
REMARK  136  A    between atoms: _323  and  _324
REMARK  137  A    between atoms: _323  and  _326
REMARK  138  A    between atoms: _326  and  _327
REMARK  139  A    between atoms: _332  and  _333
REMARK  140  A    between atoms: _335  and  _337
REMARK  141  A    between atoms: _337  and  _338
REMARK  142  A    between atoms: _337  and  _340
REMARK  143  A    between atoms: _343  and  _345
REMARK  144  A    between atoms: _345  and  _346
REMARK  145  A    between atoms: _349  and  _351
REMARK  146  A    between atoms: _351  and  _352
REMARK  147  A    between atoms: _351  and  _354
REMARK  148  A    between atoms: _354  and  _355
REMARK  149  A    between atoms: _355  and  _356
REMARK  150  A    between atoms: _356  and  _357
REMARK  151  A    between atoms: _366  and  _368
REMARK  152  A    between atoms: _368  and  _369
REMARK  153  A    between atoms: _368  and  _371
REMARK  154  A    between atoms: _371  and  _372
REMARK  155  A    between atoms: _372  and  _373
REMARK  156  A    between atoms: _373  and  _374
REMARK  157  A    between atoms: _383  and  _385
REMARK  158  A    between atoms: _385  and  _386
REMARK  159  A    between atoms: _385  and  _388
REMARK  160  A    between atoms: _388  and  _389
REMARK  161  A    between atoms: _392  and  _394
REMARK  162  A    between atoms: _394  and  _395
REMARK  163  A    between atoms: _397  and  _399
REMARK  164  A    between atoms: _399  and  _400
REMARK  165  A    between atoms: _399  and  _402
REMARK  166  A    between atoms: _402  and  _403
REMARK  167  A    between atoms: _403  and  _404
REMARK  168  A    between atoms: _407  and  _409
REMARK  169  A    between atoms: _409  and  _410
REMARK  170  A    between atoms: _409  and  _412
REMARK  171  A    between atoms: _412  and  _413
REMARK  172  A    between atoms: _415  and  _417
REMARK  173  A    between atoms: _417  and  _418
REMARK  174  A    between atoms: _417  and  _420
REMARK  175  A    between atoms: _420  and  _421
REMARK  176  A    between atoms: _424  and  _426
REMARK  177  A    between atoms: _426  and  _427
REMARK  178  A    between atoms: _426  and  _429
REMARK  179  A    between atoms: _429  and  _430
REMARK  180  A    between atoms: _430  and  _431
REMARK  181  A    between atoms: _436  and  _438
REMARK  182  A    between atoms: _438  and  _439
REMARK  183  A    between atoms: _438  and  _441
REMARK  184  A    between atoms: _441  and  _442
REMARK  185  A    between atoms: _445  and  _447
REMARK  186  A    between atoms: _447  and  _448
REMARK  187  A    between atoms: _447  and  _450
REMARK  188  A    between atoms: _450  and  _451
REMARK  189  A    between atoms: _454  and  _456
REMARK  190  A    between atoms: _456  and  _457
REMARK  191  A    between atoms: _456  and  _459
REMARK  192  A    between atoms: _459  and  _460
REMARK  193  A    between atoms: _460  and  _461
REMARK  194  A    between atoms: _460  and  _462
REMARK  195  A    between atoms: _461  and  MG_705
REMARK  196  A    between atoms: _465  and  _467
REMARK  197  A    between atoms: _467  and  _468
REMARK  198  A    between atoms: _467  and  _470
REMARK  199  A    between atoms: _470  and  _471
REMARK  200  A    between atoms: _474  and  _476
REMARK  201  A    between atoms: _476  and  _477
REMARK  202  A    between atoms: _476  and  _479
REMARK  203  A    between atoms: _479  and  _480
REMARK  204  A    between atoms: _480  and  _481
REMARK  205  A    between atoms: _481  and  _482
REMARK  206  A    between atoms: _491  and  _493
REMARK  207  A    between atoms: _493  and  _494
REMARK  208  A    between atoms: _493  and  _496
REMARK  209  A    between atoms: _496  and  _497
REMARK  210  A    between atoms: _497  and  _499
REMARK  211  A    between atoms: _499  and  MG_705
REMARK  212  A    between atoms: _500  and  _502
REMARK  213  A    between atoms: _502  and  _503
REMARK  214  A    between atoms: _502  and  _505
REMARK  215  A    between atoms: _505  and  _506
REMARK  216  A    between atoms: _506  and  _507
REMARK  217  A    between atoms: _510  and  _512
REMARK  218  A    between atoms: _512  and  _513
REMARK  219  A    between atoms: _512  and  _515
REMARK  220  A    between atoms: _515  and  _516
REMARK  221  A    between atoms: _519  and  _521
REMARK  222  A    between atoms: _521  and  _522
REMARK  223  A    between atoms: _521  and  _524
REMARK  224  A    between atoms: _524  and  _525
REMARK  225  A    between atoms: _530  and  _532
REMARK  226  A    between atoms: _532  and  _533
REMARK  227  A    between atoms: _532  and  _535
REMARK  228  A    between atoms: _535  and  _536
REMARK  229  A    between atoms: _536  and  _537
REMARK  230  A    between atoms: _537  and  _538
REMARK  231  A    between atoms: _547  and  _549
REMARK  232  A    between atoms: _549  and  _550
REMARK  233  A    between atoms: _549  and  _552
REMARK  234  A    between atoms: _552  and  _553
REMARK  235  A    between atoms: _558  and  _559
REMARK  236  A    between atoms: _561  and  _563
REMARK  237  A    between atoms: _563  and  _564
REMARK  238  A    between atoms: _563  and  _566
REMARK  239  A    between atoms: _569  and  _571
REMARK  240  A    between atoms: _571  and  _572
REMARK  241  A    between atoms: _571  and  _574
REMARK  242  A    between atoms: _574  and  _575
REMARK  243  A    between atoms: _575  and  _576
REMARK  244  A    between atoms: _578  and  _580
REMARK  245  A    between atoms: _580  and  _581
REMARK  246  A    between atoms: _580  and  _583
REMARK  247  A    between atoms: _583  and  _584
REMARK  248  A    between atoms: _587  and  _589
REMARK  249  A    between atoms: _589  and  _590
REMARK  250  A    between atoms: _589  and  _592
REMARK  251  A    between atoms: _595  and  _597
REMARK  252  A    between atoms: _597  and  _598
REMARK  253  A    between atoms: _597  and  _600
REMARK  254  A    between atoms: _600  and  _601
REMARK  255  A    between atoms: _607  and  _609
REMARK  256  A    between atoms: _609  and  _610
REMARK  257  A    between atoms: _613  and  _615
REMARK  258  A    between atoms: _615  and  _616
REMARK  259  A    between atoms: _615  and  _618
REMARK  260  A    between atoms: _618  and  _619
REMARK  261  A    between atoms: _619  and  _620
REMARK  262  A    between atoms: _625  and  _627
REMARK  263  A    between atoms: _627  and  _628
REMARK  264  A    between atoms: _627  and  _630
REMARK  265  A    between atoms: _630  and  _631
REMARK  266  A    between atoms: _634  and  _636
REMARK  267  A    between atoms: _636  and  _637
REMARK  268  A    between atoms: _636  and  _639
REMARK  269  A    between atoms: _639  and  _640
REMARK  270  A    between atoms: _643  and  _645
REMARK  271  A    between atoms: _645  and  _646
REMARK  272  A    between atoms: _645  and  _648
REMARK  273  A    between atoms: _648  and  _649
REMARK  274  A    between atoms: _649  and  _650
REMARK  275  A    between atoms: _653  and  _655
REMARK  276  A    between atoms: _655  and  _656
REMARK  277  A    between atoms: _659  and  _661
REMARK  278  A    between atoms: _661  and  _662
REMARK  279  A    between atoms: _665  and  _667
REMARK  280  A    between atoms: _667  and  _668
REMARK  281  A    between atoms: _667  and  _670
REMARK  282  A    between atoms: _670  and  _671
REMARK  283  A    between atoms: _676  and  _677
REMARK  284  A    between atoms: _679  and  _681
REMARK  285  A    between atoms: _681  and  _682
REMARK  286  A    between atoms: _681  and  _684
REMARK  287  A    between atoms: _684  and  _685
REMARK  288  A    between atoms: _688  and  _690
REMARK  289  A    between atoms: _690  and  _691
REMARK  290  A    between atoms: _690  and  _693
REMARK  291  A    between atoms: _693  and  _694
REMARK  292  A    between atoms: _694  and  _695
REMARK  293  A    between atoms: _695  and  _696
REMARK                            x       y       z     vdW  Elec       q    Type
REMARK                         _______ _______ _______ _____ _____    ______ ____
ROOT
ATOM      1  CA  VAL A   1       9.518  55.126  46.506  0.00  0.00    +0.133 C 
ENDROOT
BRANCH   1   2
ATOM      2  CB  VAL A   1      10.151  56.565  46.465  0.00  0.00    +0.023 C 
ATOM      3  CG2 VAL A   1       9.130  57.545  45.845  0.00  0.00    +0.002 C 
ATOM      4  CG1 VAL A   1      11.429  56.551  45.635  0.00  0.00    +0.002 C 
ENDBRANCH   1   2
BRANCH   1   5
ATOM      5  N   VAL A   1       8.423  55.053  47.458  0.00  0.00    -0.239 NA
ATOM      6  H   VAL A   1       8.229  55.866  48.077  0.00  0.00    +0.142 HD
ENDBRANCH   1   5
BRANCH   1   7
ATOM      7  C   VAL A   1      10.608  54.118  46.860  0.00  0.00    +0.224 C 
ATOM      8  O   VAL A   1      11.165  53.455  45.977  0.00  0.00    -0.287 OA
ENDBRANCH   1   7
TORSDOF 3
REMARK  Name = ../refined-set-2016/2zcr/2zcr_pocket.pdb
REMARK  293 active torsions:
REMARK  status: ('A' for Active; 'I' for Inactive)
REMARK    1  A    between atoms: _1  and  _3
REMARK    2  A    between atoms: _3  and  _4
REMARK    3  A    between atoms: _3  and  _6
REMARK    4  A    between atoms: _6  and  _7
REMARK    5  A    between atoms: _7  and  _8
REMARK    6  A    between atoms: _10  and  _12
REMARK    7  A    between atoms: _12  and  _13
REMARK    8  A    between atoms: _12  and  _15
REMARK    9  A    between atoms: _15  and  _16
REMARK   10  A    between atoms: _21  and  _23
REMARK   11  A    between atoms: _23  and  _24
REMARK   12  A    between atoms: _23  and  _26
REMARK   13  A    between atoms: _26  and  _27
REMARK   14  A    between atoms: _29  and  _31
REMARK   15  A    between atoms: _31  and  _32
REMARK   16  A    between atoms: _31  and  _34
REMARK   17  A    between atoms: _34  and  _35
REMARK   18  A    between atoms: _35  and  _36
REMARK   19  A    between atoms: _36  and  _37
REMARK   20  A    between atoms: _37  and  _38
REMARK   21  A    between atoms: _42  and  _44
REMARK   22  A    between atoms: _44  and  _45
REMARK   23  A    between atoms: _44  and  _47
REMARK   24  A    between atoms: _47  and  _48
REMARK   25  A    between atoms: _50  and  _52
REMARK   26  A    between atoms: _52  and  _53
REMARK   27  A    between atoms: _52  and  _55
REMARK   28  A    between atoms: _55  and  _56
REMARK   29  A    between atoms: _62  and  _64
REMARK   30  A    between atoms: _64  and  _65
REMARK   31  A    between atoms: _68  and  _70
REMARK   32  A    between atoms: _70  and  _71
REMARK   33  A    between atoms: _70  and  _73
REMARK   34  A    between atoms: _73  and  _74
REMARK   35  A    between atoms: _80  and  _82
REMARK   36  A    between atoms: _82  and  _83
REMARK   37  A    between atoms: _82  and  _85
REMARK   38  A    between atoms: _85  and  _86
REMARK   39  A    between atoms: _89  and  _91
REMARK   40  A    between atoms: _91  and  _92
REMARK   41  A    between atoms: _91  and  _94
REMARK   42  A    between atoms: _97  and  _99
REMARK   43  A    between atoms: _99  and  _100
REMARK   44  A    between atoms: _99  and  _102
REMARK   45  A    between atoms: _102  and  _103
REMARK   46  A    between atoms: _106  and  _108
REMARK   47  A    between atoms: _108  and  _109
REMARK   48  A    between atoms: _108  and  _111
REMARK   49  A    between atoms: _111  and  _112
REMARK   50  A    between atoms: _117  and  _118
REMARK   51  A    between atoms: _120  and  _122
REMARK   52  A    between atoms: _122  and  _123
REMARK   53  A    between atoms: _122  and  _125
REMARK   54  A    between atoms: _127  and  _129
REMARK   55  A    between atoms: _129  and  _130
REMARK   56  A    between atoms: _129  and  _132
REMARK   57  A    between atoms: _132  and  _133
REMARK   58  A    between atoms: _133  and  _134
REMARK   59  A    between atoms: _134  and  _135
REMARK   60  A    between atoms: _144  and  _146
REMARK   61  A    between atoms: _146  and  _147
REMARK   62  A    between atoms: _146  and  _149
REMARK   63  A    between atoms: _149  and  _150
REMARK   64  A    between atoms: _153  and  _155
REMARK   65  A    between atoms: _155  and  _156
REMARK   66  A    between atoms: _155  and  _158
REMARK   67  A    between atoms: _158  and  _159
REMARK   68  A    between atoms: _162  and  _164
REMARK   69  A    between atoms: _164  and  _165
REMARK   70  A    between atoms: _164  and  _167
REMARK   71  A    between atoms: _167  and  _168
REMARK   72  A    between atoms: _171  and  _173
REMARK   73  A    between atoms: _173  and  _174
REMARK   74  A    between atoms: _173  and  _176
REMARK   75  A    between atoms: _179  and  _181
REMARK   76  A    between atoms: _181  and  _182
REMARK   77  A    between atoms: _181  and  _184
REMARK   78  A    between atoms: _184  and  _185
REMARK   79  A    between atoms: _188  and  _190
REMARK   80  A    between atoms: _190  and  _191
REMARK   81  A    between atoms: _190  and  _193
REMARK   82  A    between atoms: _193  and  _194
REMARK   83  A    between atoms: _199  and  _200
REMARK   84  A    between atoms: _202  and  _204
REMARK   85  A    between atoms: _204  and  _205
REMARK   86  A    between atoms: _204  and  _207
REMARK   87  A    between atoms: _209  and  _211
REMARK   88  A    between atoms: _211  and  _212
REMARK   89  A    between atoms: _211  and  _214
REMARK   90  A    between atoms: _217  and  _219
REMARK   91  A    between atoms: _219  and  _220
REMARK   92  A    between atoms: _223  and  _225
REMARK   93  A    between atoms: _225  and  _226
REMARK   94  A    between atoms: _228  and  _230
REMARK   95  A    between atoms: _230  and  _231
REMARK   96  A    between atoms: _230  and  _233
REMARK   97  A    between atoms: _233  and  _234
REMARK   98  A    between atoms: _237  and  _239
REMARK   99  A    between atoms: _239  and  _240
REMARK  100  A    between atoms: _239  and  _242
REMARK  101  A    between atoms: _245  and  _247
REMARK  102  A    between atoms: _247  and  _248
REMARK  103  A    between atoms: _250  and  _252
REMARK  104  A    between atoms: _252  and  _253
REMARK  105  A    between atoms: _252  and  _255
REMARK  106  A    between atoms: _255  and  _256
REMARK  107  A    between atoms: _256  and  _257
REMARK  108  A    between atoms: _260  and  _262
REMARK  109  A    between atoms: _262  and  _263
REMARK  110  A    between atoms: _262  and  _265
REMARK  111  A    between atoms: _268  and  _270
REMARK  112  A    between atoms: _270  and  _271
REMARK  113  A    between atoms: _270  and  _273
REMARK  114  A    between atoms: _273  and  _274
REMARK  115  A    between atoms: _277  and  _279
REMARK  116  A    between atoms: _279  and  _280
REMARK  117  A    between atoms: _279  and  _282
REMARK  118  A    between atoms: _282  and  _283
REMARK  119  A    between atoms: _286  and  _288
REMARK  120  A    between atoms: _288  and  _289
REMARK  121  A    between atoms: _288  and  _291
REMARK  122  A    between atoms: _291  and  _292
REMARK  123  A    between atoms: _295  and  _297
REMARK  124  A    between atoms: _297  and  _298
REMARK  125  A    between atoms: _297  and  _300
REMARK  126  A    between atoms: _300  and  _301
REMARK  127  A    between atoms: _304  and  _306
REMARK  128  A    between atoms: _306  and  _307
REMARK  129  A    between atoms: _306  and  _309
REMARK  130  A    between atoms: _309  and  _310
REMARK  131  A    between atoms: _312  and  _314
REMARK  132  A    between atoms: _314  and  _315
REMARK  133  A    between atoms: _314  and  _317
REMARK  134  A    between atoms: _317  and  _318
REMARK  135  A    between atoms: _321  and  _323
REMARK  136  A    between atoms: _323  and  _324
REMARK  137  A    between atoms: _323  and  _326
REMARK  138  A    between atoms: _326  and  _327
REMARK  139  A    between atoms: _332  and  _333
REMARK  140  A    between atoms: _335  and  _337
REMARK  141  A    between atoms: _337  and  _338
REMARK  142  A    between atoms: _337  and  _340
REMARK  143  A    between atoms: _343  and  _345
REMARK  144  A    between atoms: _345  and  _346
REMARK  145  A    between atoms: _349  and  _351
REMARK  146  A    between atoms: _351  and  _352
REMARK  147  A    between atoms: _351  and  _354
REMARK  148  A    between atoms: _354  and  _355
REMARK  149  A    between atoms: _355  and  _356
REMARK  150  A    between atoms: _356  and  _357
REMARK  151  A    between atoms: _366  and  _368
REMARK  152  A    between atoms: _368  and  _369
REMARK  153  A    between atoms: _368  and  _371
REMARK  154  A    between atoms: _371  and  _372
REMARK  155  A    between atoms: _372  and  _373
REMARK  156  A    between atoms: _373  and  _374
REMARK  157  A    between atoms: _383  and  _385
REMARK  158  A    between atoms: _385  and  _386
REMARK  159  A    between atoms: _385  and  _388
REMARK  160  A    between atoms: _388  and  _389
REMARK  161  A    between atoms: _392  and  _394
REMARK  162  A    between atoms: _394  and  _395
REMARK  163  A    between atoms: _397  and  _399
REMARK  164  A    between atoms: _399  and  _400
REMARK  165  A    between atoms: _399  and  _402
REMARK  166  A    between atoms: _402  and  _403
REMARK  167  A    between atoms: _403  and  _404
REMARK  168  A    between atoms: _407  and  _409
REMARK  169  A    between atoms: _409  and  _410
REMARK  170  A    between atoms: _409  and  _412
REMARK  171  A    between atoms: _412  and  _413
REMARK  172  A    between atoms: _415  and  _417
REMARK  173  A    between atoms: _417  and  _418
REMARK  174  A    between atoms: _417  and  _420
REMARK  175  A    between atoms: _420  and  _421
REMARK  176  A    between atoms: _424  and  _426
REMARK  177  A    between atoms: _426  and  _427
REMARK  178  A    between atoms: _426  and  _429
REMARK  179  A    between atoms: _429  and  _430
REMARK  180  A    between atoms: _430  and  _431
REMARK  181  A    between atoms: _436  and  _438
REMARK  182  A    between atoms: _438  and  _439
REMARK  183  A    between atoms: _438  and  _441
REMARK  184  A    between atoms: _441  and  _442
REMARK  185  A    between atoms: _445  and  _447
REMARK  186  A    between atoms: _447  and  _448
REMARK  187  A    between atoms: _447  and  _450
REMARK  188  A    between atoms: _450  and  _451
REMARK  189  A    between atoms: _454  and  _456
REMARK  190  A    between atoms: _456  and  _457
REMARK  191  A    between atoms: _456  and  _459
REMARK  192  A    between atoms: _459  and  _460
REMARK  193  A    between atoms: _460  and  _461
REMARK  194  A    between atoms: _460  and  _462
REMARK  195  A    between atoms: _461  and  MG_705
REMARK  196  A    between atoms: _465  and  _467
REMARK  197  A    between atoms: _467  and  _468
REMARK  198  A    between atoms: _467  and  _470
REMARK  199  A    between atoms: _470  and  _471
REMARK  200  A    between atoms: _474  and  _476
REMARK  201  A    between atoms: _476  and  _477
REMARK  202  A    between atoms: _476  and  _479
REMARK  203  A    between atoms: _479  and  _480
REMARK  204  A    between atoms: _480  and  _481
REMARK  205  A    between atoms: _481  and  _482
REMARK  206  A    between atoms: _491  and  _493
REMARK  207  A    between atoms: _493  and  _494
REMARK  208  A    between atoms: _493  and  _496
REMARK  209  A    between atoms: _496  and  _497
REMARK  210  A    between atoms: _497  and  _499
REMARK  211  A    between atoms: _499  and  MG_705
REMARK  212  A    between atoms: _500  and  _502
REMARK  213  A    between atoms: _502  and  _503
REMARK  214  A    between atoms: _502  and  _505
REMARK  215  A    between atoms: _505  and  _506
REMARK  216  A    between atoms: _506  and  _507
REMARK  217  A    between atoms: _510  and  _512
REMARK  218  A    between atoms: _512  and  _513
REMARK  219  A    between atoms: _512  and  _515
REMARK  220  A    between atoms: _515  and  _516
REMARK  221  A    between atoms: _519  and  _521
REMARK  222  A    between atoms: _521  and  _522
REMARK  223  A    between atoms: _521  and  _524
REMARK  224  A    between atoms: _524  and  _525
REMARK  225  A    between atoms: _530  and  _532
REMARK  226  A    between atoms: _532  and  _533
REMARK  227  A    between atoms: _532  and  _535
REMARK  228  A    between atoms: _535  and  _536
REMARK  229  A    between atoms: _536  and  _537
REMARK  230  A    between atoms: _537  and  _538
REMARK  231  A    between atoms: _547  and  _549
REMARK  232  A    between atoms: _549  and  _550
REMARK  233  A    between atoms: _549  and  _552
REMARK  234  A    between atoms: _552  and  _553
REMARK  235  A    between atoms: _558  and  _559
REMARK  236  A    between atoms: _561  and  _563
REMARK  237  A    between atoms: _563  and  _564
REMARK  238  A    between atoms: _563  and  _566
REMARK  239  A    between atoms: _569  and  _571
REMARK  240  A    between atoms: _571  and  _572
REMARK  241  A    between atoms: _571  and  _574
REMARK  242  A    between atoms: _574  and  _575
REMARK  243  A    between atoms: _575  and  _576
REMARK  244  A    between atoms: _578  and  _580
REMARK  245  A    between atoms: _580  and  _581
REMARK  246  A    between atoms: _580  and  _583
REMARK  247  A    between atoms: _583  and  _584
REMARK  248  A    between atoms: _587  and  _589
REMARK  249  A    between atoms: _589  and  _590
REMARK  250  A    between atoms: _589  and  _592
REMARK  251  A    between atoms: _595  and  _597
REMARK  252  A    between atoms: _597  and  _598
REMARK  253  A    between atoms: _597  and  _600
REMARK  254  A    between atoms: _600  and  _601
REMARK  255  A    between atoms: _607  and  _609
REMARK  256  A    between atoms: _609  and  _610
REMARK  257  A    between atoms: _613  and  _615
REMARK  258  A    between atoms: _615  and  _616
REMARK  259  A    between atoms: _615  and  _618
REMARK  260  A    between atoms: _618  and  _619
REMARK  261  A    between atoms: _619  and  _620
REMARK  262  A    between atoms: _625  and  _627
REMARK  263  A    between atoms: _627  and  _628
REMARK  264  A    between atoms: _627  and  _630
REMARK  265  A    between atoms: _630  and  _631
REMARK  266  A    between atoms: _634  and  _636
REMARK  267  A    between atoms: _636  and  _637
REMARK  268  A    between atoms: _636  and  _639
REMARK  269  A    between atoms: _639  and  _640
REMARK  270  A    between atoms: _643  and  _645
REMARK  271  A    between atoms: _645  and  _646
REMARK  272  A    between atoms: _645  and  _648
REMARK  273  A    between atoms: _648  and  _649
REMARK  274  A    between atoms: _649  and  _650
REMARK  275  A    between atoms: _653  and  _655
REMARK  276  A    between atoms: _655  and  _656
REMARK  277  A    between atoms: _659  and  _661
REMARK  278  A    between atoms: _661  and  _662
REMARK  279  A    between atoms: _665  and  _667
REMARK  280  A    between atoms: _667  and  _668
REMARK  281  A    between atoms: _667  and  _670
REMARK  282  A    between atoms: _670  and  _671
REMARK  283  A    between atoms: _676  and  _677
REMARK  284  A    between atoms: _679  and  _681
REMARK  285  A    between atoms: _681  and  _682
REMARK  286  A    between atoms: _681  and  _684
REMARK  287  A    between atoms: _684  and  _685
REMARK  288  A    between atoms: _688  and  _690
REMARK  289  A    between atoms: _690  and  _691
REMARK  290  A    between atoms: _690  and  _693
REMARK  291  A    between atoms: _693  and  _694
REMARK  292  A    between atoms: _694  and  _695
REMARK  293  A    between atoms: _695  and  _696
REMARK                            x       y       z     vdW  Elec       q    Type
REMARK                         _______ _______ _______ _____ _____    ______ ____
ROOT
ATOM      1  CA  TYR A   2      12.935  51.362  43.673  0.00  0.00    +0.141 C 
ENDROOT
BRANCH   1   3
ATOM      2  C   ILE A   1      10.736  50.440  43.605  0.00  0.00    +0.238 C 
ATOM      3  N   TYR A   2      11.562  51.315  44.137  0.00  0.00    -0.298 N 
ATOM      4  H   TYR A   2      11.235  51.964  44.880  0.00  0.00    +0.150 HD
ATOM      5  O   ILE A   1      11.094  49.663  42.715  0.00  0.00    -0.274 OA
BRANCH   2   6
ATOM      6  CA  ILE A   1       9.308  50.443  44.153  0.00  0.00    +0.145 C 
BRANCH   6   7
ATOM      7  N   ILE A   1       9.312  50.608  45.606  0.00  0.00    -0.238 NA
ATOM      8  H   ILE A   1       8.920  51.475  46.025  0.00  0.00    +0.142 HD
ENDBRANCH   6   7
BRANCH   6   9
ATOM      9  CB  ILE A   1       8.482  51.570  43.548  0.00  0.00    +0.025 C 
ATOM     10  CG2 ILE A   1       8.734  51.670  42.009  0.00  0.00    +0.002 C 
BRANCH   9  11
ATOM     11  CG1 ILE A   1       7.017  51.352  44.001  0.00  0.00    +0.002 C 
ATOM     12  CD1 ILE A   1       6.033  52.511  43.718  0.00  0.00    +0.000 C 
ENDBRANCH   9  11
ENDBRANCH   6   9
ENDBRANCH   2   6
ENDBRANCH   1   3
BRANCH   1  13
ATOM     13  C   TYR A   2      13.671  50.045  43.972  0.00  0.00    +0.227 C 
ATOM     14  O   TYR A   2      14.392  49.525  43.109  0.00  0.00    -0.286 OA
ENDBRANCH   1  13
BRANCH   1  15
ATOM     15  CB  TYR A   2      13.661  52.511  44.356  0.00  0.00    +0.054 C 
BRANCH  15  16
ATOM     16  CG  TYR A   2      14.961  52.850  43.708  0.00  0.00    -0.020 A 
ATOM     17  CD2 TYR A   2      16.090  52.098  43.942  0.00  0.00    -0.001 A 
ATOM     18  CE2 TYR A   2      17.312  52.430  43.357  0.00  0.00    +0.036 A 
ATOM     19  CZ  TYR A   2      17.380  53.544  42.521  0.00  0.00    +0.134 A 
ATOM     20  CE1 TYR A   2      16.255  54.304  42.274  0.00  0.00    +0.036 A 
ATOM     21  CD1 TYR A   2      15.059  53.955  42.859  0.00  0.00    -0.001 A 
BRANCH  19  22
ATOM     22  OH  TYR A   2      18.561  53.918  41.926  0.00  0.00    -0.506 OA
ATOM     23  HH  TYR A   2      19.277  53.287  42.191  0.00  0.00    +0.292 HD
ENDBRANCH  19  22
ENDBRANCH  15  16
ENDBRANCH   1  15
TORSDOF 9
REMARK  Name = ../refined-set-2016/2zcr/2zcr_pocket.pdb
REMARK  293 active torsions:
REMARK  status: ('A' for Active; 'I' for Inactive)
REMARK    1  A    between atoms: _1  and  _3
REMARK    2  A    between atoms: _3  and  _4
REMARK    3  A    between atoms: _3  and  _6
REMARK    4  A    between atoms: _6  and  _7
REMARK    5  A    between atoms: _7  and  _8
REMARK    6  A    between atoms: _10  and  _12
REMARK    7  A    between atoms: _12  and  _13
REMARK    8  A    between atoms: _12  and  _15
REMARK    9  A    between atoms: _15  and  _16
REMARK   10  A    between atoms: _21  and  _23
REMARK   11  A    between atoms: _23  and  _24
REMARK   12  A    between atoms: _23  and  _26
REMARK   13  A    between atoms: _26  and  _27
REMARK   14  A    between atoms: _29  and  _31
REMARK   15  A    between atoms: _31  and  _32
REMARK   16  A    between atoms: _31  and  _34
REMARK   17  A    between atoms: _34  and  _35
REMARK   18  A    between atoms: _35  and  _36
REMARK   19  A    between atoms: _36  and  _37
REMARK   20  A    between atoms: _37  and  _38
REMARK   21  A    between atoms: _42  and  _44
REMARK   22  A    between atoms: _44  and  _45
REMARK   23  A    between atoms: _44  and  _47
REMARK   24  A    between atoms: _47  and  _48
REMARK   25  A    between atoms: _50  and  _52
REMARK   26  A    between atoms: _52  and  _53
REMARK   27  A    between atoms: _52  and  _55
REMARK   28  A    between atoms: _55  and  _56
REMARK   29  A    between atoms: _62  and  _64
REMARK   30  A    between atoms: _64  and  _65
REMARK   31  A    between atoms: _68  and  _70
REMARK   32  A    between atoms: _70  and  _71
REMARK   33  A    between atoms: _70  and  _73
REMARK   34  A    between atoms: _73  and  _74
REMARK   35  A    between atoms: _80  and  _82
REMARK   36  A    between atoms: _82  and  _83
REMARK   37  A    between atoms: _82  and  _85
REMARK   38  A    between atoms: _85  and  _86
REMARK   39  A    between atoms: _89  and  _91
REMARK   40  A    between atoms: _91  and  _92
REMARK   41  A    between atoms: _91  and  _94
REMARK   42  A    between atoms: _97  and  _99
REMARK   43  A    between atoms: _99  and  _100
REMARK   44  A    between atoms: _99  and  _102
REMARK   45  A    between atoms: _102  and  _103
REMARK   46  A    between atoms: _106  and  _108
REMARK   47  A    between atoms: _108  and  _109
REMARK   48  A    between atoms: _108  and  _111
REMARK   49  A    between atoms: _111  and  _112
REMARK   50  A    between atoms: _117  and  _118
REMARK   51  A    between atoms: _120  and  _122
REMARK   52  A    between atoms: _122  and  _123
REMARK   53  A    between atoms: _122  and  _125
REMARK   54  A    between atoms: _127  and  _129
REMARK   55  A    between atoms: _129  and  _130
REMARK   56  A    between atoms: _129  and  _132
REMARK   57  A    between atoms: _132  and  _133
REMARK   58  A    between atoms: _133  and  _134
REMARK   59  A    between atoms: _134  and  _135
REMARK   60  A    between atoms: _144  and  _146
REMARK   61  A    between atoms: _146  and  _147
REMARK   62  A    between atoms: _146  and  _149
REMARK   63  A    between atoms: _149  and  _150
REMARK   64  A    between atoms: _153  and  _155
REMARK   65  A    between atoms: _155  and  _156
REMARK   66  A    between atoms: _155  and  _158
REMARK   67  A    between atoms: _158  and  _159
REMARK   68  A    between atoms: _162  and  _164
REMARK   69  A    between atoms: _164  and  _165
REMARK   70  A    between atoms: _164  and  _167
REMARK   71  A    between atoms: _167  and  _168
REMARK   72  A    between atoms: _171  and  _173
REMARK   73  A    between atoms: _173  and  _174
REMARK   74  A    between atoms: _173  and  _176
REMARK   75  A    between atoms: _179  and  _181
REMARK   76  A    between atoms: _181  and  _182
REMARK   77  A    between atoms: _181  and  _184
REMARK   78  A    between atoms: _184  and  _185
REMARK   79  A    between atoms: _188  and  _190
REMARK   80  A    between atoms: _190  and  _191
REMARK   81  A    between atoms: _190  and  _193
REMARK   82  A    between atoms: _193  and  _194
REMARK   83  A    between atoms: _199  and  _200
REMARK   84  A    between atoms: _202  and  _204
REMARK   85  A    between atoms: _204  and  _205
REMARK   86  A    between atoms: _204  and  _207
REMARK   87  A    between atoms: _209  and  _211
REMARK   88  A    between atoms: _211  and  _212
REMARK   89  A    between atoms: _211  and  _214
REMARK   90  A    between atoms: _217  and  _219
REMARK   91  A    between atoms: _219  and  _220
REMARK   92  A    between atoms: _223  and  _225
REMARK   93  A    between atoms: _225  and  _226
REMARK   94  A    between atoms: _228  and  _230
REMARK   95  A    between atoms: _230  and  _231
REMARK   96  A    between atoms: _230  and  _233
REMARK   97  A    between atoms: _233  and  _234
REMARK   98  A    between atoms: _237  and  _239
REMARK   99  A    between atoms: _239  and  _240
REMARK  100  A    between atoms: _239  and  _242
REMARK  101  A    between atoms: _245  and  _247
REMARK  102  A    between atoms: _247  and  _248
REMARK  103  A    between atoms: _250  and  _252
REMARK  104  A    between atoms: _252  and  _253
REMARK  105  A    between atoms: _252  and  _255
REMARK  106  A    between atoms: _255  and  _256
REMARK  107  A    between atoms: _256  and  _257
REMARK  108  A    between atoms: _260  and  _262
REMARK  109  A    between atoms: _262  and  _263
REMARK  110  A    between atoms: _262  and  _265
REMARK  111  A    between atoms: _268  and  _270
REMARK  112  A    between atoms: _270  and  _271
REMARK  113  A    between atoms: _270  and  _273
REMARK  114  A    between atoms: _273  and  _274
REMARK  115  A    between atoms: _277  and  _279
REMARK  116  A    between atoms: _279  and  _280
REMARK  117  A    between atoms: _279  and  _282
REMARK  118  A    between atoms: _282  and  _283
REMARK  119  A    between atoms: _286  and  _288
REMARK  120  A    between atoms: _288  and  _289
REMARK  121  A    between atoms: _288  and  _291
REMARK  122  A    between atoms: _291  and  _292
REMARK  123  A    between atoms: _295  and  _297
REMARK  124  A    between atoms: _297  and  _298
REMARK  125  A    between atoms: _297  and  _300
REMARK  126  A    between atoms: _300  and  _301
REMARK  127  A    between atoms: _304  and  _306
REMARK  128  A    between atoms: _306  and  _307
REMARK  129  A    between atoms: _306  and  _309
REMARK  130  A    between atoms: _309  and  _310
REMARK  131  A    between atoms: _312  and  _314
REMARK  132  A    between atoms: _314  and  _315
REMARK  133  A    between atoms: _314  and  _317
REMARK  134  A    between atoms: _317  and  _318
REMARK  135  A    between atoms: _321  and  _323
REMARK  136  A    between atoms: _323  and  _324
REMARK  137  A    between atoms: _323  and  _326
REMARK  138  A    between atoms: _326  and  _327
REMARK  139  A    between atoms: _332  and  _333
REMARK  140  A    between atoms: _335  and  _337
REMARK  141  A    between atoms: _337  and  _338
REMARK  142  A    between atoms: _337  and  _340
REMARK  143  A    between atoms: _343  and  _345
REMARK  144  A    between atoms: _345  and  _346
REMARK  145  A    between atoms: _349  and  _351
REMARK  146  A    between atoms: _351  and  _352
REMARK  147  A    between atoms: _351  and  _354
REMARK  148  A    between atoms: _354  and  _355
REMARK  149  A    between atoms: _355  and  _356
REMARK  150  A    between atoms: _356  and  _357
REMARK  151  A    between atoms: _366  and  _368
REMARK  152  A    between atoms: _368  and  _369
REMARK  153  A    between atoms: _368  and  _371
REMARK  154  A    between atoms: _371  and  _372
REMARK  155  A    between atoms: _372  and  _373
REMARK  156  A    between atoms: _373  and  _374
REMARK  157  A    between atoms: _383  and  _385
REMARK  158  A    between atoms: _385  and  _386
REMARK  159  A    between atoms: _385  and  _388
REMARK  160  A    between atoms: _388  and  _389
REMARK  161  A    between atoms: _392  and  _394
REMARK  162  A    between atoms: _394  and  _395
REMARK  163  A    between atoms: _397  and  _399
REMARK  164  A    between atoms: _399  and  _400
REMARK  165  A    between atoms: _399  and  _402
REMARK  166  A    between atoms: _402  and  _403
REMARK  167  A    between atoms: _403  and  _404
REMARK  168  A    between atoms: _407  and  _409
REMARK  169  A    between atoms: _409  and  _410
REMARK  170  A    between atoms: _409  and  _412
REMARK  171  A    between atoms: _412  and  _413
REMARK  172  A    between atoms: _415  and  _417
REMARK  173  A    between atoms: _417  and  _418
REMARK  174  A    between atoms: _417  and  _420
REMARK  175  A    between atoms: _420  and  _421
REMARK  176  A    between atoms: _424  and  _426
REMARK  177  A    between atoms: _426  and  _427
REMARK  178  A    between atoms: _426  and  _429
REMARK  179  A    between atoms: _429  and  _430
REMARK  180  A    between atoms: _430  and  _431
REMARK  181  A    between atoms: _436  and  _438
REMARK  182  A    between atoms: _438  and  _439
REMARK  183  A    between atoms: _438  and  _441
REMARK  184  A    between atoms: _441  and  _442
REMARK  185  A    between atoms: _445  and  _447
REMARK  186  A    between atoms: _447  and  _448
REMARK  187  A    between atoms: _447  and  _450
REMARK  188  A    between atoms: _450  and  _451
REMARK  189  A    between atoms: _454  and  _456
REMARK  190  A    between atoms: _456  and  _457
REMARK  191  A    between atoms: _456  and  _459
REMARK  192  A    between atoms: _459  and  _460
REMARK  193  A    between atoms: _460  and  _461
REMARK  194  A    between atoms: _460  and  _462
REMARK  195  A    between atoms: _461  and  MG_705
REMARK  196  A    between atoms: _465  and  _467
REMARK  197  A    between atoms: _467  and  _468
REMARK  198  A    between atoms: _467  and  _470
REMARK  199  A    between atoms: _470  and  _471
REMARK  200  A    between atoms: _474  and  _476
REMARK  201  A    between atoms: _476  and  _477
REMARK  202  A    between atoms: _476  and  _479
REMARK  203  A    between atoms: _479  and  _480
REMARK  204  A    between atoms: _480  and  _481
REMARK  205  A    between atoms: _481  and  _482
REMARK  206  A    between atoms: _491  and  _493
REMARK  207  A    between atoms: _493  and  _494
REMARK  208  A    between atoms: _493  and  _496
REMARK  209  A    between atoms: _496  and  _497
REMARK  210  A    between atoms: _497  and  _499
REMARK  211  A    between atoms: _499  and  MG_705
REMARK  212  A    between atoms: _500  and  _502
REMARK  213  A    between atoms: _502  and  _503
REMARK  214  A    between atoms: _502  and  _505
REMARK  215  A    between atoms: _505  and  _506
REMARK  216  A    between atoms: _506  and  _507
REMARK  217  A    between atoms: _510  and  _512
REMARK  218  A    between atoms: _512  and  _513
REMARK  219  A    between atoms: _512  and  _515
REMARK  220  A    between atoms: _515  and  _516
REMARK  221  A    between atoms: _519  and  _521
REMARK  222  A    between atoms: _521  and  _522
REMARK  223  A    between atoms: _521  and  _524
REMARK  224  A    between atoms: _524  and  _525
REMARK  225  A    between atoms: _530  and  _532
REMARK  226  A    between atoms: _532  and  _533
REMARK  227  A    between atoms: _532  and  _535
REMARK  228  A    between atoms: _535  and  _536
REMARK  229  A    between atoms: _536  and  _537
REMARK  230  A    between atoms: _537  and  _538
REMARK  231  A    between atoms: _547  and  _549
REMARK  232  A    between atoms: _549  and  _550
REMARK  233  A    between atoms: _549  and  _552
REMARK  234  A    between atoms: _552  and  _553
REMARK  235  A    between atoms: _558  and  _559
REMARK  236  A    between atoms: _561  and  _563
REMARK  237  A    between atoms: _563  and  _564
REMARK  238  A    between atoms: _563  and  _566
REMARK  239  A    between atoms: _569  and  _571
REMARK  240  A    between atoms: _571  and  _572
REMARK  241  A    between atoms: _571  and  _574
REMARK  242  A    between atoms: _574  and  _575
REMARK  243  A    between atoms: _575  and  _576
REMARK  244  A    between atoms: _578  and  _580
REMARK  245  A    between atoms: _580  and  _581
REMARK  246  A    between atoms: _580  and  _583
REMARK  247  A    between atoms: _583  and  _584
REMARK  248  A    between atoms: _587  and  _589
REMARK  249  A    between atoms: _589  and  _590
REMARK  250  A    between atoms: _589  and  _592
REMARK  251  A    between atoms: _595  and  _597
REMARK  252  A    between atoms: _597  and  _598
REMARK  253  A    between atoms: _597  and  _600
REMARK  254  A    between atoms: _600  and  _601
REMARK  255  A    between atoms: _607  and  _609
REMARK  256  A    between atoms: _609  and  _610
REMARK  257  A    between atoms: _613  and  _615
REMARK  258  A    between atoms: _615  and  _616
REMARK  259  A    between atoms: _615  and  _618
REMARK  260  A    between atoms: _618  and  _619
REMARK  261  A    between atoms: _619  and  _620
REMARK  262  A    between atoms: _625  and  _627
REMARK  263  A    between atoms: _627  and  _628
REMARK  264  A    between atoms: _627  and  _630
REMARK  265  A    between atoms: _630  and  _631
REMARK  266  A    between atoms: _634  and  _636
REMARK  267  A    between atoms: _636  and  _637
REMARK  268  A    between atoms: _636  and  _639
REMARK  269  A    between atoms: _639  and  _640
REMARK  270  A    between atoms: _643  and  _645
REMARK  271  A    between atoms: _645  and  _646
REMARK  272  A    between atoms: _645  and  _648
REMARK  273  A    between atoms: _648  and  _649
REMARK  274  A    between atoms: _649  and  _650
REMARK  275  A    between atoms: _653  and  _655
REMARK  276  A    between atoms: _655  and  _656
REMARK  277  A    between atoms: _659  and  _661
REMARK  278  A    between atoms: _661  and  _662
REMARK  279  A    between atoms: _665  and  _667
REMARK  280  A    between atoms: _667  and  _668
REMARK  281  A    between atoms: _667  and  _670
REMARK  282  A    between atoms: _670  and  _671
REMARK  283  A    between atoms: _676  and  _677
REMARK  284  A    between atoms: _679  and  _681
REMARK  285  A    between atoms: _681  and  _682
REMARK  286  A    between atoms: _681  and  _684
REMARK  287  A    between atoms: _684  and  _685
REMARK  288  A    between atoms: _688  and  _690
REMARK  289  A    between atoms: _690  and  _691
REMARK  290  A    between atoms: _690  and  _693
REMARK  291  A    between atoms: _693  and  _694
REMARK  292  A    between atoms: _694  and  _695
REMARK  293  A    between atoms: _695  and  _696
REMARK                            x       y       z     vdW  Elec       q    Type
REMARK                         _______ _______ _______ _____ _____    ______ ____
ROOT
ATOM      1  CA  ARG A   2      16.950  46.969  41.668  0.00  0.00    +0.137 C 
ENDROOT
BRANCH   1   3
ATOM      2  C   CYS A   1      14.877  47.065  40.414  0.00  0.00    +0.239 C 
ATOM      3  N   ARG A   2      15.548  47.403  41.512  0.00  0.00    -0.298 N 
ATOM      4  H   ARG A   2      15.088  47.968  42.254  0.00  0.00    +0.150 HD
ATOM      5  O   CYS A   1      15.387  46.393  39.515  0.00  0.00    -0.274 OA
BRANCH   2   6
ATOM      6  CA  CYS A   1      13.419  47.505  40.294  0.00  0.00    +0.156 C 
BRANCH   6   7
ATOM      7  N   CYS A   1      12.749  47.357  41.575  0.00  0.00    -0.237 NA
ATOM      8  H   CYS A   1      12.367  48.189  42.069  0.00  0.00    +0.142 HD
ENDBRANCH   6   7
BRANCH   6   9
ATOM      9  CB  CYS A   1      13.295  48.947  39.793  0.00  0.00    +0.095 C 
ATOM     10  SG  CYS A   1      11.553  49.330  39.397  0.00  0.00    -0.080 S 
ENDBRANCH   6   9
ENDBRANCH   2   6
ENDBRANCH   1   3
BRANCH   1  11
ATOM     11  C   ARG A   2      17.067  45.446  41.722  0.00  0.00    +0.227 C 
ATOM     12  O   ARG A   2      17.960  44.883  41.124  0.00  0.00    -0.286 OA
ENDBRANCH   1  11
BRANCH   1  13
ATOM     13  CB  ARG A   2      17.584  47.572  42.917  0.00  0.00    +0.031 C 
BRANCH  13  14
ATOM     14  CG  ARG A   2      17.765  49.083  42.806  0.00  0.00    +0.045 C 
BRANCH  14  15
ATOM     15  CD  ARG A   2      18.236  49.473  41.397  0.00  0.00    +0.174 C 
BRANCH  15  16
ATOM     16  NE  ARG A   2      19.517  48.846  41.036  0.00  0.00    -0.265 N 
ATOM     17  HE  ARG A   2      20.147  48.550  41.809  0.00  0.00    +0.259 HD
ATOM     18  CZ  ARG A   2      19.926  48.631  39.784  0.00  0.00    +0.342 C 
ATOM     19  NH2 ARG A   2      21.095  48.070  39.559  0.00  0.00    -0.292 N 
ATOM     20 HH21 ARG A   2      21.701  47.794  40.357  0.00  0.00    +0.255 HD
ATOM     21 HH22 ARG A   2      21.412  47.903  38.583  0.00  0.00    +0.255 HD
ATOM     22  NH1 ARG A   2      19.173  48.984  38.753  0.00  0.00    -0.292 N 
ATOM     23 HH11 ARG A   2      18.250  49.435  38.914  0.00  0.00    +0.255 HD
ATOM     24 HH12 ARG A   2      19.505  48.810  37.783  0.00  0.00    +0.255 HD
ENDBRANCH  15  16
ENDBRANCH  14  15
ENDBRANCH  13  14
ENDBRANCH   1  13
TORSDOF 9
REMARK  Name = ../refined-set-2016/2zcr/2zcr_pocket.pdb
REMARK  293 active torsions:
REMARK  status: ('A' for Active; 'I' for Inactive)
REMARK    1  A    between atoms: _1  and  _3
REMARK    2  A    between atoms: _3  and  _4
REMARK    3  A    between atoms: _3  and  _6
REMARK    4  A    between atoms: _6  and  _7
REMARK    5  A    between atoms: _7  and  _8
REMARK    6  A    between atoms: _10  and  _12
REMARK    7  A    between atoms: _12  and  _13
REMARK    8  A    between atoms: _12  and  _15
REMARK    9  A    between atoms: _15  and  _16
REMARK   10  A    between atoms: _21  and  _23
REMARK   11  A    between atoms: _23  and  _24
REMARK   12  A    between atoms: _23  and  _26
REMARK   13  A    between atoms: _26  and  _27
REMARK   14  A    between atoms: _29  and  _31
REMARK   15  A    between atoms: _31  and  _32
REMARK   16  A    between atoms: _31  and  _34
REMARK   17  A    between atoms: _34  and  _35
REMARK   18  A    between atoms: _35  and  _36
REMARK   19  A    between atoms: _36  and  _37
REMARK   20  A    between atoms: _37  and  _38
REMARK   21  A    between atoms: _42  and  _44
REMARK   22  A    between atoms: _44  and  _45
REMARK   23  A    between atoms: _44  and  _47
REMARK   24  A    between atoms: _47  and  _48
REMARK   25  A    between atoms: _50  and  _52
REMARK   26  A    between atoms: _52  and  _53
REMARK   27  A    between atoms: _52  and  _55
REMARK   28  A    between atoms: _55  and  _56
REMARK   29  A    between atoms: _62  and  _64
REMARK   30  A    between atoms: _64  and  _65
REMARK   31  A    between atoms: _68  and  _70
REMARK   32  A    between atoms: _70  and  _71
REMARK   33  A    between atoms: _70  and  _73
REMARK   34  A    between atoms: _73  and  _74
REMARK   35  A    between atoms: _80  and  _82
REMARK   36  A    between atoms: _82  and  _83
REMARK   37  A    between atoms: _82  and  _85
REMARK   38  A    between atoms: _85  and  _86
REMARK   39  A    between atoms: _89  and  _91
REMARK   40  A    between atoms: _91  and  _92
REMARK   41  A    between atoms: _91  and  _94
REMARK   42  A    between atoms: _97  and  _99
REMARK   43  A    between atoms: _99  and  _100
REMARK   44  A    between atoms: _99  and  _102
REMARK   45  A    between atoms: _102  and  _103
REMARK   46  A    between atoms: _106  and  _108
REMARK   47  A    between atoms: _108  and  _109
REMARK   48  A    between atoms: _108  and  _111
REMARK   49  A    between atoms: _111  and  _112
REMARK   50  A    between atoms: _117  and  _118
REMARK   51  A    between atoms: _120  and  _122
REMARK   52  A    between atoms: _122  and  _123
REMARK   53  A    between atoms: _122  and  _125
REMARK   54  A    between atoms: _127  and  _129
REMARK   55  A    between atoms: _129  and  _130
REMARK   56  A    between atoms: _129  and  _132
REMARK   57  A    between atoms: _132  and  _133
REMARK   58  A    between atoms: _133  and  _134
REMARK   59  A    between atoms: _134  and  _135
REMARK   60  A    between atoms: _144  and  _146
REMARK   61  A    between atoms: _146  and  _147
REMARK   62  A    between atoms: _146  and  _149
REMARK   63  A    between atoms: _149  and  _150
REMARK   64  A    between atoms: _153  and  _155
REMARK   65  A    between atoms: _155  and  _156
REMARK   66  A    between atoms: _155  and  _158
REMARK   67  A    between atoms: _158  and  _159
REMARK   68  A    between atoms: _162  and  _164
REMARK   69  A    between atoms: _164  and  _165
REMARK   70  A    between atoms: _164  and  _167
REMARK   71  A    between atoms: _167  and  _168
REMARK   72  A    between atoms: _171  and  _173
REMARK   73  A    between atoms: _173  and  _174
REMARK   74  A    between atoms: _173  and  _176
REMARK   75  A    between atoms: _179  and  _181
REMARK   76  A    between atoms: _181  and  _182
REMARK   77  A    between atoms: _181  and  _184
REMARK   78  A    between atoms: _184  and  _185
REMARK   79  A    between atoms: _188  and  _190
REMARK   80  A    between atoms: _190  and  _191
REMARK   81  A    between atoms: _190  and  _193
REMARK   82  A    between atoms: _193  and  _194
REMARK   83  A    between atoms: _199  and  _200
REMARK   84  A    between atoms: _202  and  _204
REMARK   85  A    between atoms: _204  and  _205
REMARK   86  A    between atoms: _204  and  _207
REMARK   87  A    between atoms: _209  and  _211
REMARK   88  A    between atoms: _211  and  _212
REMARK   89  A    between atoms: _211  and  _214
REMARK   90  A    between atoms: _217  and  _219
REMARK   91  A    between atoms: _219  and  _220
REMARK   92  A    between atoms: _223  and  _225
REMARK   93  A    between atoms: _225  and  _226
REMARK   94  A    between atoms: _228  and  _230
REMARK   95  A    between atoms: _230  and  _231
REMARK   96  A    between atoms: _230  and  _233
REMARK   97  A    between atoms: _233  and  _234
REMARK   98  A    between atoms: _237  and  _239
REMARK   99  A    between atoms: _239  and  _240
REMARK  100  A    between atoms: _239  and  _242
REMARK  101  A    between atoms: _245  and  _247
REMARK  102  A    between atoms: _247  and  _248
REMARK  103  A    between atoms: _250  and  _252
REMARK  104  A    between atoms: _252  and  _253
REMARK  105  A    between atoms: _252  and  _255
REMARK  106  A    between atoms: _255  and  _256
REMARK  107  A    between atoms: _256  and  _257
REMARK  108  A    between atoms: _260  and  _262
REMARK  109  A    between atoms: _262  and  _263
REMARK  110  A    between atoms: _262  and  _265
REMARK  111  A    between atoms: _268  and  _270
REMARK  112  A    between atoms: _270  and  _271
REMARK  113  A    between atoms: _270  and  _273
REMARK  114  A    between atoms: _273  and  _274
REMARK  115  A    between atoms: _277  and  _279
REMARK  116  A    between atoms: _279  and  _280
REMARK  117  A    between atoms: _279  and  _282
REMARK  118  A    between atoms: _282  and  _283
REMARK  119  A    between atoms: _286  and  _288
REMARK  120  A    between atoms: _288  and  _289
REMARK  121  A    between atoms: _288  and  _291
REMARK  122  A    between atoms: _291  and  _292
REMARK  123  A    between atoms: _295  and  _297
REMARK  124  A    between atoms: _297  and  _298
REMARK  125  A    between atoms: _297  and  _300
REMARK  126  A    between atoms: _300  and  _301
REMARK  127  A    between atoms: _304  and  _306
REMARK  128  A    between atoms: _306  and  _307
REMARK  129  A    between atoms: _306  and  _309
REMARK  130  A    between atoms: _309  and  _310
REMARK  131  A    between atoms: _312  and  _314
REMARK  132  A    between atoms: _314  and  _315
REMARK  133  A    between atoms: _314  and  _317
REMARK  134  A    between atoms: _317  and  _318
REMARK  135  A    between atoms: _321  and  _323
REMARK  136  A    between atoms: _323  and  _324
REMARK  137  A    between atoms: _323  and  _326
REMARK  138  A    between atoms: _326  and  _327
REMARK  139  A    between atoms: _332  and  _333
REMARK  140  A    between atoms: _335  and  _337
REMARK  141  A    between atoms: _337  and  _338
REMARK  142  A    between atoms: _337  and  _340
REMARK  143  A    between atoms: _343  and  _345
REMARK  144  A    between atoms: _345  and  _346
REMARK  145  A    between atoms: _349  and  _351
REMARK  146  A    between atoms: _351  and  _352
REMARK  147  A    between atoms: _351  and  _354
REMARK  148  A    between atoms: _354  and  _355
REMARK  149  A    between atoms: _355  and  _356
REMARK  150  A    between atoms: _356  and  _357
REMARK  151  A    between atoms: _366  and  _368
REMARK  152  A    between atoms: _368  and  _369
REMARK  153  A    between atoms: _368  and  _371
REMARK  154  A    between atoms: _371  and  _372
REMARK  155  A    between atoms: _372  and  _373
REMARK  156  A    between atoms: _373  and  _374
REMARK  157  A    between atoms: _383  and  _385
REMARK  158  A    between atoms: _385  and  _386
REMARK  159  A    between atoms: _385  and  _388
REMARK  160  A    between atoms: _388  and  _389
REMARK  161  A    between atoms: _392  and  _394
REMARK  162  A    between atoms: _394  and  _395
REMARK  163  A    between atoms: _397  and  _399
REMARK  164  A    between atoms: _399  and  _400
REMARK  165  A    between atoms: _399  and  _402
REMARK  166  A    between atoms: _402  and  _403
REMARK  167  A    between atoms: _403  and  _404
REMARK  168  A    between atoms: _407  and  _409
REMARK  169  A    between atoms: _409  and  _410
REMARK  170  A    between atoms: _409  and  _412
REMARK  171  A    between atoms: _412  and  _413
REMARK  172  A    between atoms: _415  and  _417
REMARK  173  A    between atoms: _417  and  _418
REMARK  174  A    between atoms: _417  and  _420
REMARK  175  A    between atoms: _420  and  _421
REMARK  176  A    between atoms: _424  and  _426
REMARK  177  A    between atoms: _426  and  _427
REMARK  178  A    between atoms: _426  and  _429
REMARK  179  A    between atoms: _429  and  _430
REMARK  180  A    between atoms: _430  and  _431
REMARK  181  A    between atoms: _436  and  _438
REMARK  182  A    between atoms: _438  and  _439
REMARK  183  A    between atoms: _438  and  _441
REMARK  184  A    between atoms: _441  and  _442
REMARK  185  A    between atoms: _445  and  _447
REMARK  186  A    between atoms: _447  and  _448
REMARK  187  A    between atoms: _447  and  _450
REMARK  188  A    between atoms: _450  and  _451
REMARK  189  A    between atoms: _454  and  _456
REMARK  190  A    between atoms: _456  and  _457
REMARK  191  A    between atoms: _456  and  _459
REMARK  192  A    between atoms: _459  and  _460
REMARK  193  A    between atoms: _460  and  _461
REMARK  194  A    between atoms: _460  and  _462
REMARK  195  A    between atoms: _461  and  MG_705
REMARK  196  A    between atoms: _465  and  _467
REMARK  197  A    between atoms: _467  and  _468
REMARK  198  A    between atoms: _467  and  _470
REMARK  199  A    between atoms: _470  and  _471
REMARK  200  A    between atoms: _474  and  _476
REMARK  201  A    between atoms: _476  and  _477
REMARK  202  A    between atoms: _476  and  _479
REMARK  203  A    between atoms: _479  and  _480
REMARK  204  A    between atoms: _480  and  _481
REMARK  205  A    between atoms: _481  and  _482
REMARK  206  A    between atoms: _491  and  _493
REMARK  207  A    between atoms: _493  and  _494
REMARK  208  A    between atoms: _493  and  _496
REMARK  209  A    between atoms: _496  and  _497
REMARK  210  A    between atoms: _497  and  _499
REMARK  211  A    between atoms: _499  and  MG_705
REMARK  212  A    between atoms: _500  and  _502
REMARK  213  A    between atoms: _502  and  _503
REMARK  214  A    between atoms: _502  and  _505
REMARK  215  A    between atoms: _505  and  _506
REMARK  216  A    between atoms: _506  and  _507
REMARK  217  A    between atoms: _510  and  _512
REMARK  218  A    between atoms: _512  and  _513
REMARK  219  A    between atoms: _512  and  _515
REMARK  220  A    between atoms: _515  and  _516
REMARK  221  A    between atoms: _519  and  _521
REMARK  222  A    between atoms: _521  and  _522
REMARK  223  A    between atoms: _521  and  _524
REMARK  224  A    between atoms: _524  and  _525
REMARK  225  A    between atoms: _530  and  _532
REMARK  226  A    between atoms: _532  and  _533
REMARK  227  A    between atoms: _532  and  _535
REMARK  228  A    between atoms: _535  and  _536
REMARK  229  A    between atoms: _536  and  _537
REMARK  230  A    between atoms: _537  and  _538
REMARK  231  A    between atoms: _547  and  _549
REMARK  232  A    between atoms: _549  and  _550
REMARK  233  A    between atoms: _549  and  _552
REMARK  234  A    between atoms: _552  and  _553
REMARK  235  A    between atoms: _558  and  _559
REMARK  236  A    between atoms: _561  and  _563
REMARK  237  A    between atoms: _563  and  _564
REMARK  238  A    between atoms: _563  and  _566
REMARK  239  A    between atoms: _569  and  _571
REMARK  240  A    between atoms: _571  and  _572
REMARK  241  A    between atoms: _571  and  _574
REMARK  242  A    between atoms: _574  and  _575
REMARK  243  A    between atoms: _575  and  _576
REMARK  244  A    between atoms: _578  and  _580
REMARK  245  A    between atoms: _580  and  _581
REMARK  246  A    between atoms: _580  and  _583
REMARK  247  A    between atoms: _583  and  _584
REMARK  248  A    between atoms: _587  and  _589
REMARK  249  A    between atoms: _589  and  _590
REMARK  250  A    between atoms: _589  and  _592
REMARK  251  A    between atoms: _595  and  _597
REMARK  252  A    between atoms: _597  and  _598
REMARK  253  A    between atoms: _597  and  _600
REMARK  254  A    between atoms: _600  and  _601
REMARK  255  A    between atoms: _607  and  _609
REMARK  256  A    between atoms: _609  and  _610
REMARK  257  A    between atoms: _613  and  _615
REMARK  258  A    between atoms: _615  and  _616
REMARK  259  A    between atoms: _615  and  _618
REMARK  260  A    between atoms: _618  and  _619
REMARK  261  A    between atoms: _619  and  _620
REMARK  262  A    between atoms: _625  and  _627
REMARK  263  A    between atoms: _627  and  _628
REMARK  264  A    between atoms: _627  and  _630
REMARK  265  A    between atoms: _630  and  _631
REMARK  266  A    between atoms: _634  and  _636
REMARK  267  A    between atoms: _636  and  _637
REMARK  268  A    between atoms: _636  and  _639
REMARK  269  A    between atoms: _639  and  _640
REMARK  270  A    between atoms: _643  and  _645
REMARK  271  A    between atoms: _645  and  _646
REMARK  272  A    between atoms: _645  and  _648
REMARK  273  A    between atoms: _648  and  _649
REMARK  274  A    between atoms: _649  and  _650
REMARK  275  A    between atoms: _653  and  _655
REMARK  276  A    between atoms: _655  and  _656
REMARK  277  A    between atoms: _659  and  _661
REMARK  278  A    between atoms: _661  and  _662
REMARK  279  A    between atoms: _665  and  _667
REMARK  280  A    between atoms: _667  and  _668
REMARK  281  A    between atoms: _667  and  _670
REMARK  282  A    between atoms: _670  and  _671
REMARK  283  A    between atoms: _676  and  _677
REMARK  284  A    between atoms: _679  and  _681
REMARK  285  A    between atoms: _681  and  _682
REMARK  286  A    between atoms: _681  and  _684
REMARK  287  A    between atoms: _684  and  _685
REMARK  288  A    between atoms: _688  and  _690
REMARK  289  A    between atoms: _690  and  _691
REMARK  290  A    between atoms: _690  and  _693
REMARK  291  A    between atoms: _693  and  _694
REMARK  292  A    between atoms: _694  and  _695
REMARK  293  A    between atoms: _695  and  _696
REMARK                            x       y       z     vdW  Elec       q    Type
REMARK                         _______ _______ _______ _____ _____    ______ ____
ROOT
ATOM      1  C   ASP A   1      19.205  43.631  37.783  0.00  0.00    +0.239 C 
ATOM      2  N   ASP A   2      19.305  43.182  39.031  0.00  0.00    -0.298 N 
ATOM      3  H   ASP A   2      18.558  43.420  39.715  0.00  0.00    +0.150 HD
ATOM      4  O   ASP A   1      20.031  43.314  36.916  0.00  0.00    -0.274 OA
ENDROOT
BRANCH   1   5
ATOM      5  CA  ASP A   1      17.981  44.522  37.413  0.00  0.00    +0.156 C 
BRANCH   5   6
ATOM      6  N   ASP A   1      16.768  44.216  38.171  0.00  0.00    -0.238 NA
ATOM      7  H   ASP A   1      16.309  44.966  38.726  0.00  0.00    +0.142 HD
ENDBRANCH   5   6
BRANCH   5   8
ATOM      8  CB  ASP A   1      18.301  46.025  37.563  0.00  0.00    +0.140 C 
BRANCH   8   9
ATOM      9  CG  ASP A   1      19.193  46.571  36.423  0.00  0.00    +0.367 C 
ATOM     10  OD2 ASP A   1      20.285  47.114  36.726  0.00  0.00    -0.246 OA
ATOM     11  OD1 ASP A   1      18.803  46.466  35.232  0.00  0.00    -0.246 OA
ENDBRANCH   8   9
ENDBRANCH   5   8
ENDBRANCH   1   5
BRANCH   2  12
ATOM     12  CA  ASP A   2      20.448  42.354  39.474  0.00  0.00    +0.148 C 
BRANCH  12  13
ATOM     13  C   ASP A   2      20.201  40.832  39.546  0.00  0.00    +0.227 C 
ATOM     14  O   ASP A   2      21.125  40.037  39.820  0.00  0.00    -0.286 OA
ENDBRANCH  12  13
BRANCH  12  15
ATOM     15  CB  ASP A   2      20.892  42.770  40.881  0.00  0.00    +0.142 C 
BRANCH  15  16
ATOM     16  CG  ASP A   2      21.373  44.194  40.971  0.00  0.00    +0.367 C 
ATOM     17  OD2 ASP A   2      21.426  44.685  42.119  0.00  0.00    -0.246 OA
ATOM     18  OD1 ASP A   2      21.704  44.819  39.934  0.00  0.00    -0.246 OA
ENDBRANCH  15  16
ENDBRANCH  12  15
ENDBRANCH   2  12
TORSDOF 8
REMARK  Name = ../refined-set-2016/2zcr/2zcr_pocket.pdb
REMARK  293 active torsions:
REMARK  status: ('A' for Active; 'I' for Inactive)
REMARK    1  A    between atoms: _1  and  _3
REMARK    2  A    between atoms: _3  and  _4
REMARK    3  A    between atoms: _3  and  _6
REMARK    4  A    between atoms: _6  and  _7
REMARK    5  A    between atoms: _7  and  _8
REMARK    6  A    between atoms: _10  and  _12
REMARK    7  A    between atoms: _12  and  _13
REMARK    8  A    between atoms: _12  and  _15
REMARK    9  A    between atoms: _15  and  _16
REMARK   10  A    between atoms: _21  and  _23
REMARK   11  A    between atoms: _23  and  _24
REMARK   12  A    between atoms: _23  and  _26
REMARK   13  A    between atoms: _26  and  _27
REMARK   14  A    between atoms: _29  and  _31
REMARK   15  A    between atoms: _31  and  _32
REMARK   16  A    between atoms: _31  and  _34
REMARK   17  A    between atoms: _34  and  _35
REMARK   18  A    between atoms: _35  and  _36
REMARK   19  A    between atoms: _36  and  _37
REMARK   20  A    between atoms: _37  and  _38
REMARK   21  A    between atoms: _42  and  _44
REMARK   22  A    between atoms: _44  and  _45
REMARK   23  A    between atoms: _44  and  _47
REMARK   24  A    between atoms: _47  and  _48
REMARK   25  A    between atoms: _50  and  _52
REMARK   26  A    between atoms: _52  and  _53
REMARK   27  A    between atoms: _52  and  _55
REMARK   28  A    between atoms: _55  and  _56
REMARK   29  A    between atoms: _62  and  _64
REMARK   30  A    between atoms: _64  and  _65
REMARK   31  A    between atoms: _68  and  _70
REMARK   32  A    between atoms: _70  and  _71
REMARK   33  A    between atoms: _70  and  _73
REMARK   34  A    between atoms: _73  and  _74
REMARK   35  A    between atoms: _80  and  _82
REMARK   36  A    between atoms: _82  and  _83
REMARK   37  A    between atoms: _82  and  _85
REMARK   38  A    between atoms: _85  and  _86
REMARK   39  A    between atoms: _89  and  _91
REMARK   40  A    between atoms: _91  and  _92
REMARK   41  A    between atoms: _91  and  _94
REMARK   42  A    between atoms: _97  and  _99
REMARK   43  A    between atoms: _99  and  _100
REMARK   44  A    between atoms: _99  and  _102
REMARK   45  A    between atoms: _102  and  _103
REMARK   46  A    between atoms: _106  and  _108
REMARK   47  A    between atoms: _108  and  _109
REMARK   48  A    between atoms: _108  and  _111
REMARK   49  A    between atoms: _111  and  _112
REMARK   50  A    between atoms: _117  and  _118
REMARK   51  A    between atoms: _120  and  _122
REMARK   52  A    between atoms: _122  and  _123
REMARK   53  A    between atoms: _122  and  _125
REMARK   54  A    between atoms: _127  and  _129
REMARK   55  A    between atoms: _129  and  _130
REMARK   56  A    between atoms: _129  and  _132
REMARK   57  A    between atoms: _132  and  _133
REMARK   58  A    between atoms: _133  and  _134
REMARK   59  A    between atoms: _134  and  _135
REMARK   60  A    between atoms: _144  and  _146
REMARK   61  A    between atoms: _146  and  _147
REMARK   62  A    between atoms: _146  and  _149
REMARK   63  A    between atoms: _149  and  _150
REMARK   64  A    between atoms: _153  and  _155
REMARK   65  A    between atoms: _155  and  _156
REMARK   66  A    between atoms: _155  and  _158
REMARK   67  A    between atoms: _158  and  _159
REMARK   68  A    between atoms: _162  and  _164
REMARK   69  A    between atoms: _164  and  _165
REMARK   70  A    between atoms: _164  and  _167
REMARK   71  A    between atoms: _167  and  _168
REMARK   72  A    between atoms: _171  and  _173
REMARK   73  A    between atoms: _173  and  _174
REMARK   74  A    between atoms: _173  and  _176
REMARK   75  A    between atoms: _179  and  _181
REMARK   76  A    between atoms: _181  and  _182
REMARK   77  A    between atoms: _181  and  _184
REMARK   78  A    between atoms: _184  and  _185
REMARK   79  A    between atoms: _188  and  _190
REMARK   80  A    between atoms: _190  and  _191
REMARK   81  A    between atoms: _190  and  _193
REMARK   82  A    between atoms: _193  and  _194
REMARK   83  A    between atoms: _199  and  _200
REMARK   84  A    between atoms: _202  and  _204
REMARK   85  A    between atoms: _204  and  _205
REMARK   86  A    between atoms: _204  and  _207
REMARK   87  A    between atoms: _209  and  _211
REMARK   88  A    between atoms: _211  and  _212
REMARK   89  A    between atoms: _211  and  _214
REMARK   90  A    between atoms: _217  and  _219
REMARK   91  A    between atoms: _219  and  _220
REMARK   92  A    between atoms: _223  and  _225
REMARK   93  A    between atoms: _225  and  _226
REMARK   94  A    between atoms: _228  and  _230
REMARK   95  A    between atoms: _230  and  _231
REMARK   96  A    between atoms: _230  and  _233
REMARK   97  A    between atoms: _233  and  _234
REMARK   98  A    between atoms: _237  and  _239
REMARK   99  A    between atoms: _239  and  _240
REMARK  100  A    between atoms: _239  and  _242
REMARK  101  A    between atoms: _245  and  _247
REMARK  102  A    between atoms: _247  and  _248
REMARK  103  A    between atoms: _250  and  _252
REMARK  104  A    between atoms: _252  and  _253
REMARK  105  A    between atoms: _252  and  _255
REMARK  106  A    between atoms: _255  and  _256
REMARK  107  A    between atoms: _256  and  _257
REMARK  108  A    between atoms: _260  and  _262
REMARK  109  A    between atoms: _262  and  _263
REMARK  110  A    between atoms: _262  and  _265
REMARK  111  A    between atoms: _268  and  _270
REMARK  112  A    between atoms: _270  and  _271
REMARK  113  A    between atoms: _270  and  _273
REMARK  114  A    between atoms: _273  and  _274
REMARK  115  A    between atoms: _277  and  _279
REMARK  116  A    between atoms: _279  and  _280
REMARK  117  A    between atoms: _279  and  _282
REMARK  118  A    between atoms: _282  and  _283
REMARK  119  A    between atoms: _286  and  _288
REMARK  120  A    between atoms: _288  and  _289
REMARK  121  A    between atoms: _288  and  _291
REMARK  122  A    between atoms: _291  and  _292
REMARK  123  A    between atoms: _295  and  _297
REMARK  124  A    between atoms: _297  and  _298
REMARK  125  A    between atoms: _297  and  _300
REMARK  126  A    between atoms: _300  and  _301
REMARK  127  A    between atoms: _304  and  _306
REMARK  128  A    between atoms: _306  and  _307
REMARK  129  A    between atoms: _306  and  _309
REMARK  130  A    between atoms: _309  and  _310
REMARK  131  A    between atoms: _312  and  _314
REMARK  132  A    between atoms: _314  and  _315
REMARK  133  A    between atoms: _314  and  _317
REMARK  134  A    between atoms: _317  and  _318
REMARK  135  A    between atoms: _321  and  _323
REMARK  136  A    between atoms: _323  and  _324
REMARK  137  A    between atoms: _323  and  _326
REMARK  138  A    between atoms: _326  and  _327
REMARK  139  A    between atoms: _332  and  _333
REMARK  140  A    between atoms: _335  and  _337
REMARK  141  A    between atoms: _337  and  _338
REMARK  142  A    between atoms: _337  and  _340
REMARK  143  A    between atoms: _343  and  _345
REMARK  144  A    between atoms: _345  and  _346
REMARK  145  A    between atoms: _349  and  _351
REMARK  146  A    between atoms: _351  and  _352
REMARK  147  A    between atoms: _351  and  _354
REMARK  148  A    between atoms: _354  and  _355
REMARK  149  A    between atoms: _355  and  _356
REMARK  150  A    between atoms: _356  and  _357
REMARK  151  A    between atoms: _366  and  _368
REMARK  152  A    between atoms: _368  and  _369
REMARK  153  A    between atoms: _368  and  _371
REMARK  154  A    between atoms: _371  and  _372
REMARK  155  A    between atoms: _372  and  _373
REMARK  156  A    between atoms: _373  and  _374
REMARK  157  A    between atoms: _383  and  _385
REMARK  158  A    between atoms: _385  and  _386
REMARK  159  A    between atoms: _385  and  _388
REMARK  160  A    between atoms: _388  and  _389
REMARK  161  A    between atoms: _392  and  _394
REMARK  162  A    between atoms: _394  and  _395
REMARK  163  A    between atoms: _397  and  _399
REMARK  164  A    between atoms: _399  and  _400
REMARK  165  A    between atoms: _399  and  _402
REMARK  166  A    between atoms: _402  and  _403
REMARK  167  A    between atoms: _403  and  _404
REMARK  168  A    between atoms: _407  and  _409
REMARK  169  A    between atoms: _409  and  _410
REMARK  170  A    between atoms: _409  and  _412
REMARK  171  A    between atoms: _412  and  _413
REMARK  172  A    between atoms: _415  and  _417
REMARK  173  A    between atoms: _417  and  _418
REMARK  174  A    between atoms: _417  and  _420
REMARK  175  A    between atoms: _420  and  _421
REMARK  176  A    between atoms: _424  and  _426
REMARK  177  A    between atoms: _426  and  _427
REMARK  178  A    between atoms: _426  and  _429
REMARK  179  A    between atoms: _429  and  _430
REMARK  180  A    between atoms: _430  and  _431
REMARK  181  A    between atoms: _436  and  _438
REMARK  182  A    between atoms: _438  and  _439
REMARK  183  A    between atoms: _438  and  _441
REMARK  184  A    between atoms: _441  and  _442
REMARK  185  A    between atoms: _445  and  _447
REMARK  186  A    between atoms: _447  and  _448
REMARK  187  A    between atoms: _447  and  _450
REMARK  188  A    between atoms: _450  and  _451
REMARK  189  A    between atoms: _454  and  _456
REMARK  190  A    between atoms: _456  and  _457
REMARK  191  A    between atoms: _456  and  _459
REMARK  192  A    between atoms: _459  and  _460
REMARK  193  A    between atoms: _460  and  _461
REMARK  194  A    between atoms: _460  and  _462
REMARK  195  A    between atoms: _461  and  MG_705
REMARK  196  A    between atoms: _465  and  _467
REMARK  197  A    between atoms: _467  and  _468
REMARK  198  A    between atoms: _467  and  _470
REMARK  199  A    between atoms: _470  and  _471
REMARK  200  A    between atoms: _474  and  _476
REMARK  201  A    between atoms: _476  and  _477
REMARK  202  A    between atoms: _476  and  _479
REMARK  203  A    between atoms: _479  and  _480
REMARK  204  A    between atoms: _480  and  _481
REMARK  205  A    between atoms: _481  and  _482
REMARK  206  A    between atoms: _491  and  _493
REMARK  207  A    between atoms: _493  and  _494
REMARK  208  A    between atoms: _493  and  _496
REMARK  209  A    between atoms: _496  and  _497
REMARK  210  A    between atoms: _497  and  _499
REMARK  211  A    between atoms: _499  and  MG_705
REMARK  212  A    between atoms: _500  and  _502
REMARK  213  A    between atoms: _502  and  _503
REMARK  214  A    between atoms: _502  and  _505
REMARK  215  A    between atoms: _505  and  _506
REMARK  216  A    between atoms: _506  and  _507
REMARK  217  A    between atoms: _510  and  _512
REMARK  218  A    between atoms: _512  and  _513
REMARK  219  A    between atoms: _512  and  _515
REMARK  220  A    between atoms: _515  and  _516
REMARK  221  A    between atoms: _519  and  _521
REMARK  222  A    between atoms: _521  and  _522
REMARK  223  A    between atoms: _521  and  _524
REMARK  224  A    between atoms: _524  and  _525
REMARK  225  A    between atoms: _530  and  _532
REMARK  226  A    between atoms: _532  and  _533
REMARK  227  A    between atoms: _532  and  _535
REMARK  228  A    between atoms: _535  and  _536
REMARK  229  A    between atoms: _536  and  _537
REMARK  230  A    between atoms: _537  and  _538
REMARK  231  A    between atoms: _547  and  _549
REMARK  232  A    between atoms: _549  and  _550
REMARK  233  A    between atoms: _549  and  _552
REMARK  234  A    between atoms: _552  and  _553
REMARK  235  A    between atoms: _558  and  _559
REMARK  236  A    between atoms: _561  and  _563
REMARK  237  A    between atoms: _563  and  _564
REMARK  238  A    between atoms: _563  and  _566
REMARK  239  A    between atoms: _569  and  _571
REMARK  240  A    between atoms: _571  and  _572
REMARK  241  A    between atoms: _571  and  _574
REMARK  242  A    between atoms: _574  and  _575
REMARK  243  A    between atoms: _575  and  _576
REMARK  244  A    between atoms: _578  and  _580
REMARK  245  A    between atoms: _580  and  _581
REMARK  246  A    between atoms: _580  and  _583
REMARK  247  A    between atoms: _583  and  _584
REMARK  248  A    between atoms: _587  and  _589
REMARK  249  A    between atoms: _589  and  _590
REMARK  250  A    between atoms: _589  and  _592
REMARK  251  A    between atoms: _595  and  _597
REMARK  252  A    between atoms: _597  and  _598
REMARK  253  A    between atoms: _597  and  _600
REMARK  254  A    between atoms: _600  and  _601
REMARK  255  A    between atoms: _607  and  _609
REMARK  256  A    between atoms: _609  and  _610
REMARK  257  A    between atoms: _613  and  _615
REMARK  258  A    between atoms: _615  and  _616
REMARK  259  A    between atoms: _615  and  _618
REMARK  260  A    between atoms: _618  and  _619
REMARK  261  A    between atoms: _619  and  _620
REMARK  262  A    between atoms: _625  and  _627
REMARK  263  A    between atoms: _627  and  _628
REMARK  264  A    between atoms: _627  and  _630
REMARK  265  A    between atoms: _630  and  _631
REMARK  266  A    between atoms: _634  and  _636
REMARK  267  A    between atoms: _636  and  _637
REMARK  268  A    between atoms: _636  and  _639
REMARK  269  A    between atoms: _639  and  _640
REMARK  270  A    between atoms: _643  and  _645
REMARK  271  A    between atoms: _645  and  _646
REMARK  272  A    between atoms: _645  and  _648
REMARK  273  A    between atoms: _648  and  _649
REMARK  274  A    between atoms: _649  and  _650
REMARK  275  A    between atoms: _653  and  _655
REMARK  276  A    between atoms: _655  and  _656
REMARK  277  A    between atoms: _659  and  _661
REMARK  278  A    between atoms: _661  and  _662
REMARK  279  A    between atoms: _665  and  _667
REMARK  280  A    between atoms: _667  and  _668
REMARK  281  A    between atoms: _667  and  _670
REMARK  282  A    between atoms: _670  and  _671
REMARK  283  A    between atoms: _676  and  _677
REMARK  284  A    between atoms: _679  and  _681
REMARK  285  A    between atoms: _681  and  _682
REMARK  286  A    between atoms: _681  and  _684
REMARK  287  A    between atoms: _684  and  _685
REMARK  288  A    between atoms: _688  and  _690
REMARK  289  A    between atoms: _690  and  _691
REMARK  290  A    between atoms: _690  and  _693
REMARK  291  A    between atoms: _693  and  _694
REMARK  292  A    between atoms: _694  and  _695
REMARK  293  A    between atoms: _695  and  _696
REMARK                            x       y       z     vdW  Elec       q    Type
REMARK                         _______ _______ _______ _____ _____    ______ ____
ROOT
ATOM      1  CA  LEU A   1      11.172  46.060  32.849  0.00  0.00    +0.133 C 
ENDROOT
BRANCH   1   2
ATOM      2  N   LEU A   1       9.831  46.014  32.293  0.00  0.00    -0.239 NA
ATOM      3  H   LEU A   1       9.023  46.309  32.878  0.00  0.00    +0.142 HD
ENDBRANCH   1   2
BRANCH   1   4
ATOM      4  C   LEU A   1      11.740  44.620  32.926  0.00  0.00    +0.224 C 
ATOM      5  O   LEU A   1      12.887  44.348  32.537  0.00  0.00    -0.287 OA
ENDBRANCH   1   4
BRANCH   1   6
ATOM      6  CB  LEU A   1      11.111  46.662  34.261  0.00  0.00    +0.025 C 
BRANCH   6   7
ATOM      7  CG  LEU A   1      12.430  46.564  35.064  0.00  0.00    +0.002 C 
ATOM      8  CD2 LEU A   1      12.258  47.214  36.430  0.00  0.00    +0.000 C 
ATOM      9  CD1 LEU A   1      13.588  47.243  34.299  0.00  0.00    +0.000 C 
ENDBRANCH   6   7
ENDBRANCH   1   6
TORSDOF 4
REMARK  Name = ../refined-set-2016/2zcr/2zcr_pocket.pdb
REMARK  293 active torsions:
REMARK  status: ('A' for Active; 'I' for Inactive)
REMARK    1  A    between atoms: _1  and  _3
REMARK    2  A    between atoms: _3  and  _4
REMARK    3  A    between atoms: _3  and  _6
REMARK    4  A    between atoms: _6  and  _7
REMARK    5  A    between atoms: _7  and  _8
REMARK    6  A    between atoms: _10  and  _12
REMARK    7  A    between atoms: _12  and  _13
REMARK    8  A    between atoms: _12  and  _15
REMARK    9  A    between atoms: _15  and  _16
REMARK   10  A    between atoms: _21  and  _23
REMARK   11  A    between atoms: _23  and  _24
REMARK   12  A    between atoms: _23  and  _26
REMARK   13  A    between atoms: _26  and  _27
REMARK   14  A    between atoms: _29  and  _31
REMARK   15  A    between atoms: _31  and  _32
REMARK   16  A    between atoms: _31  and  _34
REMARK   17  A    between atoms: _34  and  _35
REMARK   18  A    between atoms: _35  and  _36
REMARK   19  A    between atoms: _36  and  _37
REMARK   20  A    between atoms: _37  and  _38
REMARK   21  A    between atoms: _42  and  _44
REMARK   22  A    between atoms: _44  and  _45
REMARK   23  A    between atoms: _44  and  _47
REMARK   24  A    between atoms: _47  and  _48
REMARK   25  A    between atoms: _50  and  _52
REMARK   26  A    between atoms: _52  and  _53
REMARK   27  A    between atoms: _52  and  _55
REMARK   28  A    between atoms: _55  and  _56
REMARK   29  A    between atoms: _62  and  _64
REMARK   30  A    between atoms: _64  and  _65
REMARK   31  A    between atoms: _68  and  _70
REMARK   32  A    between atoms: _70  and  _71
REMARK   33  A    between atoms: _70  and  _73
REMARK   34  A    between atoms: _73  and  _74
REMARK   35  A    between atoms: _80  and  _82
REMARK   36  A    between atoms: _82  and  _83
REMARK   37  A    between atoms: _82  and  _85
REMARK   38  A    between atoms: _85  and  _86
REMARK   39  A    between atoms: _89  and  _91
REMARK   40  A    between atoms: _91  and  _92
REMARK   41  A    between atoms: _91  and  _94
REMARK   42  A    between atoms: _97  and  _99
REMARK   43  A    between atoms: _99  and  _100
REMARK   44  A    between atoms: _99  and  _102
REMARK   45  A    between atoms: _102  and  _103
REMARK   46  A    between atoms: _106  and  _108
REMARK   47  A    between atoms: _108  and  _109
REMARK   48  A    between atoms: _108  and  _111
REMARK   49  A    between atoms: _111  and  _112
REMARK   50  A    between atoms: _117  and  _118
REMARK   51  A    between atoms: _120  and  _122
REMARK   52  A    between atoms: _122  and  _123
REMARK   53  A    between atoms: _122  and  _125
REMARK   54  A    between atoms: _127  and  _129
REMARK   55  A    between atoms: _129  and  _130
REMARK   56  A    between atoms: _129  and  _132
REMARK   57  A    between atoms: _132  and  _133
REMARK   58  A    between atoms: _133  and  _134
REMARK   59  A    between atoms: _134  and  _135
REMARK   60  A    between atoms: _144  and  _146
REMARK   61  A    between atoms: _146  and  _147
REMARK   62  A    between atoms: _146  and  _149
REMARK   63  A    between atoms: _149  and  _150
REMARK   64  A    between atoms: _153  and  _155
REMARK   65  A    between atoms: _155  and  _156
REMARK   66  A    between atoms: _155  and  _158
REMARK   67  A    between atoms: _158  and  _159
REMARK   68  A    between atoms: _162  and  _164
REMARK   69  A    between atoms: _164  and  _165
REMARK   70  A    between atoms: _164  and  _167
REMARK   71  A    between atoms: _167  and  _168
REMARK   72  A    between atoms: _171  and  _173
REMARK   73  A    between atoms: _173  and  _174
REMARK   74  A    between atoms: _173  and  _176
REMARK   75  A    between atoms: _179  and  _181
REMARK   76  A    between atoms: _181  and  _182
REMARK   77  A    between atoms: _181  and  _184
REMARK   78  A    between atoms: _184  and  _185
REMARK   79  A    between atoms: _188  and  _190
REMARK   80  A    between atoms: _190  and  _191
REMARK   81  A    between atoms: _190  and  _193
REMARK   82  A    between atoms: _193  and  _194
REMARK   83  A    between atoms: _199  and  _200
REMARK   84  A    between atoms: _202  and  _204
REMARK   85  A    between atoms: _204  and  _205
REMARK   86  A    between atoms: _204  and  _207
REMARK   87  A    between atoms: _209  and  _211
REMARK   88  A    between atoms: _211  and  _212
REMARK   89  A    between atoms: _211  and  _214
REMARK   90  A    between atoms: _217  and  _219
REMARK   91  A    between atoms: _219  and  _220
REMARK   92  A    between atoms: _223  and  _225
REMARK   93  A    between atoms: _225  and  _226
REMARK   94  A    between atoms: _228  and  _230
REMARK   95  A    between atoms: _230  and  _231
REMARK   96  A    between atoms: _230  and  _233
REMARK   97  A    between atoms: _233  and  _234
REMARK   98  A    between atoms: _237  and  _239
REMARK   99  A    between atoms: _239  and  _240
REMARK  100  A    between atoms: _239  and  _242
REMARK  101  A    between atoms: _245  and  _247
REMARK  102  A    between atoms: _247  and  _248
REMARK  103  A    between atoms: _250  and  _252
REMARK  104  A    between atoms: _252  and  _253
REMARK  105  A    between atoms: _252  and  _255
REMARK  106  A    between atoms: _255  and  _256
REMARK  107  A    between atoms: _256  and  _257
REMARK  108  A    between atoms: _260  and  _262
REMARK  109  A    between atoms: _262  and  _263
REMARK  110  A    between atoms: _262  and  _265
REMARK  111  A    between atoms: _268  and  _270
REMARK  112  A    between atoms: _270  and  _271
REMARK  113  A    between atoms: _270  and  _273
REMARK  114  A    between atoms: _273  and  _274
REMARK  115  A    between atoms: _277  and  _279
REMARK  116  A    between atoms: _279  and  _280
REMARK  117  A    between atoms: _279  and  _282
REMARK  118  A    between atoms: _282  and  _283
REMARK  119  A    between atoms: _286  and  _288
REMARK  120  A    between atoms: _288  and  _289
REMARK  121  A    between atoms: _288  and  _291
REMARK  122  A    between atoms: _291  and  _292
REMARK  123  A    between atoms: _295  and  _297
REMARK  124  A    between atoms: _297  and  _298
REMARK  125  A    between atoms: _297  and  _300
REMARK  126  A    between atoms: _300  and  _301
REMARK  127  A    between atoms: _304  and  _306
REMARK  128  A    between atoms: _306  and  _307
REMARK  129  A    between atoms: _306  and  _309
REMARK  130  A    between atoms: _309  and  _310
REMARK  131  A    between atoms: _312  and  _314
REMARK  132  A    between atoms: _314  and  _315
REMARK  133  A    between atoms: _314  and  _317
REMARK  134  A    between atoms: _317  and  _318
REMARK  135  A    between atoms: _321  and  _323
REMARK  136  A    between atoms: _323  and  _324
REMARK  137  A    between atoms: _323  and  _326
REMARK  138  A    between atoms: _326  and  _327
REMARK  139  A    between atoms: _332  and  _333
REMARK  140  A    between atoms: _335  and  _337
REMARK  141  A    between atoms: _337  and  _338
REMARK  142  A    between atoms: _337  and  _340
REMARK  143  A    between atoms: _343  and  _345
REMARK  144  A    between atoms: _345  and  _346
REMARK  145  A    between atoms: _349  and  _351
REMARK  146  A    between atoms: _351  and  _352
REMARK  147  A    between atoms: _351  and  _354
REMARK  148  A    between atoms: _354  and  _355
REMARK  149  A    between atoms: _355  and  _356
REMARK  150  A    between atoms: _356  and  _357
REMARK  151  A    between atoms: _366  and  _368
REMARK  152  A    between atoms: _368  and  _369
REMARK  153  A    between atoms: _368  and  _371
REMARK  154  A    between atoms: _371  and  _372
REMARK  155  A    between atoms: _372  and  _373
REMARK  156  A    between atoms: _373  and  _374
REMARK  157  A    between atoms: _383  and  _385
REMARK  158  A    between atoms: _385  and  _386
REMARK  159  A    between atoms: _385  and  _388
REMARK  160  A    between atoms: _388  and  _389
REMARK  161  A    between atoms: _392  and  _394
REMARK  162  A    between atoms: _394  and  _395
REMARK  163  A    between atoms: _397  and  _399
REMARK  164  A    between atoms: _399  and  _400
REMARK  165  A    between atoms: _399  and  _402
REMARK  166  A    between atoms: _402  and  _403
REMARK  167  A    between atoms: _403  and  _404
REMARK  168  A    between atoms: _407  and  _409
REMARK  169  A    between atoms: _409  and  _410
REMARK  170  A    between atoms: _409  and  _412
REMARK  171  A    between atoms: _412  and  _413
REMARK  172  A    between atoms: _415  and  _417
REMARK  173  A    between atoms: _417  and  _418
REMARK  174  A    between atoms: _417  and  _420
REMARK  175  A    between atoms: _420  and  _421
REMARK  176  A    between atoms: _424  and  _426
REMARK  177  A    between atoms: _426  and  _427
REMARK  178  A    between atoms: _426  and  _429
REMARK  179  A    between atoms: _429  and  _430
REMARK  180  A    between atoms: _430  and  _431
REMARK  181  A    between atoms: _436  and  _438
REMARK  182  A    between atoms: _438  and  _439
REMARK  183  A    between atoms: _438  and  _441
REMARK  184  A    between atoms: _441  and  _442
REMARK  185  A    between atoms: _445  and  _447
REMARK  186  A    between atoms: _447  and  _448
REMARK  187  A    between atoms: _447  and  _450
REMARK  188  A    between atoms: _450  and  _451
REMARK  189  A    between atoms: _454  and  _456
REMARK  190  A    between atoms: _456  and  _457
REMARK  191  A    between atoms: _456  and  _459
REMARK  192  A    between atoms: _459  and  _460
REMARK  193  A    between atoms: _460  and  _461
REMARK  194  A    between atoms: _460  and  _462
REMARK  195  A    between atoms: _461  and  MG_705
REMARK  196  A    between atoms: _465  and  _467
REMARK  197  A    between atoms: _467  and  _468
REMARK  198  A    between atoms: _467  and  _470
REMARK  199  A    between atoms: _470  and  _471
REMARK  200  A    between atoms: _474  and  _476
REMARK  201  A    between atoms: _476  and  _477
REMARK  202  A    between atoms: _476  and  _479
REMARK  203  A    between atoms: _479  and  _480
REMARK  204  A    between atoms: _480  and  _481
REMARK  205  A    between atoms: _481  and  _482
REMARK  206  A    between atoms: _491  and  _493
REMARK  207  A    between atoms: _493  and  _494
REMARK  208  A    between atoms: _493  and  _496
REMARK  209  A    between atoms: _496  and  _497
REMARK  210  A    between atoms: _497  and  _499
REMARK  211  A    between atoms: _499  and  MG_705
REMARK  212  A    between atoms: _500  and  _502
REMARK  213  A    between atoms: _502  and  _503
REMARK  214  A    between atoms: _502  and  _505
REMARK  215  A    between atoms: _505  and  _506
REMARK  216  A    between atoms: _506  and  _507
REMARK  217  A    between atoms: _510  and  _512
REMARK  218  A    between atoms: _512  and  _513
REMARK  219  A    between atoms: _512  and  _515
REMARK  220  A    between atoms: _515  and  _516
REMARK  221  A    between atoms: _519  and  _521
REMARK  222  A    between atoms: _521  and  _522
REMARK  223  A    between atoms: _521  and  _524
REMARK  224  A    between atoms: _524  and  _525
REMARK  225  A    between atoms: _530  and  _532
REMARK  226  A    between atoms: _532  and  _533
REMARK  227  A    between atoms: _532  and  _535
REMARK  228  A    between atoms: _535  and  _536
REMARK  229  A    between atoms: _536  and  _537
REMARK  230  A    between atoms: _537  and  _538
REMARK  231  A    between atoms: _547  and  _549
REMARK  232  A    between atoms: _549  and  _550
REMARK  233  A    between atoms: _549  and  _552
REMARK  234  A    between atoms: _552  and  _553
REMARK  235  A    between atoms: _558  and  _559
REMARK  236  A    between atoms: _561  and  _563
REMARK  237  A    between atoms: _563  and  _564
REMARK  238  A    between atoms: _563  and  _566
REMARK  239  A    between atoms: _569  and  _571
REMARK  240  A    between atoms: _571  and  _572
REMARK  241  A    between atoms: _571  and  _574
REMARK  242  A    between atoms: _574  and  _575
REMARK  243  A    between atoms: _575  and  _576
REMARK  244  A    between atoms: _578  and  _580
REMARK  245  A    between atoms: _580  and  _581
REMARK  246  A    between atoms: _580  and  _583
REMARK  247  A    between atoms: _583  and  _584
REMARK  248  A    between atoms: _587  and  _589
REMARK  249  A    between atoms: _589  and  _590
REMARK  250  A    between atoms: _589  and  _592
REMARK  251  A    between atoms: _595  and  _597
REMARK  252  A    between atoms: _597  and  _598
REMARK  253  A    between atoms: _597  and  _600
REMARK  254  A    between atoms: _600  and  _601
REMARK  255  A    between atoms: _607  and  _609
REMARK  256  A    between atoms: _609  and  _610
REMARK  257  A    between atoms: _613  and  _615
REMARK  258  A    between atoms: _615  and  _616
REMARK  259  A    between atoms: _615  and  _618
REMARK  260  A    between atoms: _618  and  _619
REMARK  261  A    between atoms: _619  and  _620
REMARK  262  A    between atoms: _625  and  _627
REMARK  263  A    between atoms: _627  and  _628
REMARK  264  A    between atoms: _627  and  _630
REMARK  265  A    between atoms: _630  and  _631
REMARK  266  A    between atoms: _634  and  _636
REMARK  267  A    between atoms: _636  and  _637
REMARK  268  A    between atoms: _636  and  _639
REMARK  269  A    between atoms: _639  and  _640
REMARK  270  A    between atoms: _643  and  _645
REMARK  271  A    between atoms: _645  and  _646
REMARK  272  A    between atoms: _645  and  _648
REMARK  273  A    between atoms: _648  and  _649
REMARK  274  A    between atoms: _649  and  _650
REMARK  275  A    between atoms: _653  and  _655
REMARK  276  A    between atoms: _655  and  _656
REMARK  277  A    between atoms: _659  and  _661
REMARK  278  A    between atoms: _661  and  _662
REMARK  279  A    between atoms: _665  and  _667
REMARK  280  A    between atoms: _667  and  _668
REMARK  281  A    between atoms: _667  and  _670
REMARK  282  A    between atoms: _670  and  _671
REMARK  283  A    between atoms: _676  and  _677
REMARK  284  A    between atoms: _679  and  _681
REMARK  285  A    between atoms: _681  and  _682
REMARK  286  A    between atoms: _681  and  _684
REMARK  287  A    between atoms: _684  and  _685
REMARK  288  A    between atoms: _688  and  _690
REMARK  289  A    between atoms: _690  and  _691
REMARK  290  A    between atoms: _690  and  _693
REMARK  291  A    between atoms: _693  and  _694
REMARK  292  A    between atoms: _694  and  _695
REMARK  293  A    between atoms: _695  and  _696
REMARK                            x       y       z     vdW  Elec       q    Type
REMARK                         _______ _______ _______ _____ _____    ______ ____
ROOT
ATOM      1  CA  VAL A   1      16.210  42.433  31.720  0.00  0.00    +0.133 C 
ENDROOT
BRANCH   1   2
ATOM      2  CB  VAL A   1      15.943  42.409  33.245  0.00  0.00    +0.023 C 
ATOM      3  CG2 VAL A   1      16.923  41.497  33.932  0.00  0.00    +0.002 C 
ATOM      4  CG1 VAL A   1      16.022  43.850  33.789  0.00  0.00    +0.002 C 
ENDBRANCH   1   2
BRANCH   1   5
ATOM      5  N   VAL A   1      15.127  43.103  31.028  0.00  0.00    -0.239 NA
ATOM      6  H   VAL A   1      14.308  43.452  31.565  0.00  0.00    +0.142 HD
ENDBRANCH   1   5
BRANCH   1   7
ATOM      7  C   VAL A   1      16.419  41.017  31.171  0.00  0.00    +0.224 C 
ATOM      8  O   VAL A   1      17.549  40.644  30.956  0.00  0.00    -0.287 OA
ENDBRANCH   1   7
TORSDOF 3
REMARK  Name = ../refined-set-2016/2zcr/2zcr_pocket.pdb
REMARK  293 active torsions:
REMARK  status: ('A' for Active; 'I' for Inactive)
REMARK    1  A    between atoms: _1  and  _3
REMARK    2  A    between atoms: _3  and  _4
REMARK    3  A    between atoms: _3  and  _6
REMARK    4  A    between atoms: _6  and  _7
REMARK    5  A    between atoms: _7  and  _8
REMARK    6  A    between atoms: _10  and  _12
REMARK    7  A    between atoms: _12  and  _13
REMARK    8  A    between atoms: _12  and  _15
REMARK    9  A    between atoms: _15  and  _16
REMARK   10  A    between atoms: _21  and  _23
REMARK   11  A    between atoms: _23  and  _24
REMARK   12  A    between atoms: _23  and  _26
REMARK   13  A    between atoms: _26  and  _27
REMARK   14  A    between atoms: _29  and  _31
REMARK   15  A    between atoms: _31  and  _32
REMARK   16  A    between atoms: _31  and  _34
REMARK   17  A    between atoms: _34  and  _35
REMARK   18  A    between atoms: _35  and  _36
REMARK   19  A    between atoms: _36  and  _37
REMARK   20  A    between atoms: _37  and  _38
REMARK   21  A    between atoms: _42  and  _44
REMARK   22  A    between atoms: _44  and  _45
REMARK   23  A    between atoms: _44  and  _47
REMARK   24  A    between atoms: _47  and  _48
REMARK   25  A    between atoms: _50  and  _52
REMARK   26  A    between atoms: _52  and  _53
REMARK   27  A    between atoms: _52  and  _55
REMARK   28  A    between atoms: _55  and  _56
REMARK   29  A    between atoms: _62  and  _64
REMARK   30  A    between atoms: _64  and  _65
REMARK   31  A    between atoms: _68  and  _70
REMARK   32  A    between atoms: _70  and  _71
REMARK   33  A    between atoms: _70  and  _73
REMARK   34  A    between atoms: _73  and  _74
REMARK   35  A    between atoms: _80  and  _82
REMARK   36  A    between atoms: _82  and  _83
REMARK   37  A    between atoms: _82  and  _85
REMARK   38  A    between atoms: _85  and  _86
REMARK   39  A    between atoms: _89  and  _91
REMARK   40  A    between atoms: _91  and  _92
REMARK   41  A    between atoms: _91  and  _94
REMARK   42  A    between atoms: _97  and  _99
REMARK   43  A    between atoms: _99  and  _100
REMARK   44  A    between atoms: _99  and  _102
REMARK   45  A    between atoms: _102  and  _103
REMARK   46  A    between atoms: _106  and  _108
REMARK   47  A    between atoms: _108  and  _109
REMARK   48  A    between atoms: _108  and  _111
REMARK   49  A    between atoms: _111  and  _112
REMARK   50  A    between atoms: _117  and  _118
REMARK   51  A    between atoms: _120  and  _122
REMARK   52  A    between atoms: _122  and  _123
REMARK   53  A    between atoms: _122  and  _125
REMARK   54  A    between atoms: _127  and  _129
REMARK   55  A    between atoms: _129  and  _130
REMARK   56  A    between atoms: _129  and  _132
REMARK   57  A    between atoms: _132  and  _133
REMARK   58  A    between atoms: _133  and  _134
REMARK   59  A    between atoms: _134  and  _135
REMARK   60  A    between atoms: _144  and  _146
REMARK   61  A    between atoms: _146  and  _147
REMARK   62  A    between atoms: _146  and  _149
REMARK   63  A    between atoms: _149  and  _150
REMARK   64  A    between atoms: _153  and  _155
REMARK   65  A    between atoms: _155  and  _156
REMARK   66  A    between atoms: _155  and  _158
REMARK   67  A    between atoms: _158  and  _159
REMARK   68  A    between atoms: _162  and  _164
REMARK   69  A    between atoms: _164  and  _165
REMARK   70  A    between atoms: _164  and  _167
REMARK   71  A    between atoms: _167  and  _168
REMARK   72  A    between atoms: _171  and  _173
REMARK   73  A    between atoms: _173  and  _174
REMARK   74  A    between atoms: _173  and  _176
REMARK   75  A    between atoms: _179  and  _181
REMARK   76  A    between atoms: _181  and  _182
REMARK   77  A    between atoms: _181  and  _184
REMARK   78  A    between atoms: _184  and  _185
REMARK   79  A    between atoms: _188  and  _190
REMARK   80  A    between atoms: _190  and  _191
REMARK   81  A    between atoms: _190  and  _193
REMARK   82  A    between atoms: _193  and  _194
REMARK   83  A    between atoms: _199  and  _200
REMARK   84  A    between atoms: _202  and  _204
REMARK   85  A    between atoms: _204  and  _205
REMARK   86  A    between atoms: _204  and  _207
REMARK   87  A    between atoms: _209  and  _211
REMARK   88  A    between atoms: _211  and  _212
REMARK   89  A    between atoms: _211  and  _214
REMARK   90  A    between atoms: _217  and  _219
REMARK   91  A    between atoms: _219  and  _220
REMARK   92  A    between atoms: _223  and  _225
REMARK   93  A    between atoms: _225  and  _226
REMARK   94  A    between atoms: _228  and  _230
REMARK   95  A    between atoms: _230  and  _231
REMARK   96  A    between atoms: _230  and  _233
REMARK   97  A    between atoms: _233  and  _234
REMARK   98  A    between atoms: _237  and  _239
REMARK   99  A    between atoms: _239  and  _240
REMARK  100  A    between atoms: _239  and  _242
REMARK  101  A    between atoms: _245  and  _247
REMARK  102  A    between atoms: _247  and  _248
REMARK  103  A    between atoms: _250  and  _252
REMARK  104  A    between atoms: _252  and  _253
REMARK  105  A    between atoms: _252  and  _255
REMARK  106  A    between atoms: _255  and  _256
REMARK  107  A    between atoms: _256  and  _257
REMARK  108  A    between atoms: _260  and  _262
REMARK  109  A    between atoms: _262  and  _263
REMARK  110  A    between atoms: _262  and  _265
REMARK  111  A    between atoms: _268  and  _270
REMARK  112  A    between atoms: _270  and  _271
REMARK  113  A    between atoms: _270  and  _273
REMARK  114  A    between atoms: _273  and  _274
REMARK  115  A    between atoms: _277  and  _279
REMARK  116  A    between atoms: _279  and  _280
REMARK  117  A    between atoms: _279  and  _282
REMARK  118  A    between atoms: _282  and  _283
REMARK  119  A    between atoms: _286  and  _288
REMARK  120  A    between atoms: _288  and  _289
REMARK  121  A    between atoms: _288  and  _291
REMARK  122  A    between atoms: _291  and  _292
REMARK  123  A    between atoms: _295  and  _297
REMARK  124  A    between atoms: _297  and  _298
REMARK  125  A    between atoms: _297  and  _300
REMARK  126  A    between atoms: _300  and  _301
REMARK  127  A    between atoms: _304  and  _306
REMARK  128  A    between atoms: _306  and  _307
REMARK  129  A    between atoms: _306  and  _309
REMARK  130  A    between atoms: _309  and  _310
REMARK  131  A    between atoms: _312  and  _314
REMARK  132  A    between atoms: _314  and  _315
REMARK  133  A    between atoms: _314  and  _317
REMARK  134  A    between atoms: _317  and  _318
REMARK  135  A    between atoms: _321  and  _323
REMARK  136  A    between atoms: _323  and  _324
REMARK  137  A    between atoms: _323  and  _326
REMARK  138  A    between atoms: _326  and  _327
REMARK  139  A    between atoms: _332  and  _333
REMARK  140  A    between atoms: _335  and  _337
REMARK  141  A    between atoms: _337  and  _338
REMARK  142  A    between atoms: _337  and  _340
REMARK  143  A    between atoms: _343  and  _345
REMARK  144  A    between atoms: _345  and  _346
REMARK  145  A    between atoms: _349  and  _351
REMARK  146  A    between atoms: _351  and  _352
REMARK  147  A    between atoms: _351  and  _354
REMARK  148  A    between atoms: _354  and  _355
REMARK  149  A    between atoms: _355  and  _356
REMARK  150  A    between atoms: _356  and  _357
REMARK  151  A    between atoms: _366  and  _368
REMARK  152  A    between atoms: _368  and  _369
REMARK  153  A    between atoms: _368  and  _371
REMARK  154  A    between atoms: _371  and  _372
REMARK  155  A    between atoms: _372  and  _373
REMARK  156  A    between atoms: _373  and  _374
REMARK  157  A    between atoms: _383  and  _385
REMARK  158  A    between atoms: _385  and  _386
REMARK  159  A    between atoms: _385  and  _388
REMARK  160  A    between atoms: _388  and  _389
REMARK  161  A    between atoms: _392  and  _394
REMARK  162  A    between atoms: _394  and  _395
REMARK  163  A    between atoms: _397  and  _399
REMARK  164  A    between atoms: _399  and  _400
REMARK  165  A    between atoms: _399  and  _402
REMARK  166  A    between atoms: _402  and  _403
REMARK  167  A    between atoms: _403  and  _404
REMARK  168  A    between atoms: _407  and  _409
REMARK  169  A    between atoms: _409  and  _410
REMARK  170  A    between atoms: _409  and  _412
REMARK  171  A    between atoms: _412  and  _413
REMARK  172  A    between atoms: _415  and  _417
REMARK  173  A    between atoms: _417  and  _418
REMARK  174  A    between atoms: _417  and  _420
REMARK  175  A    between atoms: _420  and  _421
REMARK  176  A    between atoms: _424  and  _426
REMARK  177  A    between atoms: _426  and  _427
REMARK  178  A    between atoms: _426  and  _429
REMARK  179  A    between atoms: _429  and  _430
REMARK  180  A    between atoms: _430  and  _431
REMARK  181  A    between atoms: _436  and  _438
REMARK  182  A    between atoms: _438  and  _439
REMARK  183  A    between atoms: _438  and  _441
REMARK  184  A    between atoms: _441  and  _442
REMARK  185  A    between atoms: _445  and  _447
REMARK  186  A    between atoms: _447  and  _448
REMARK  187  A    between atoms: _447  and  _450
REMARK  188  A    between atoms: _450  and  _451
REMARK  189  A    between atoms: _454  and  _456
REMARK  190  A    between atoms: _456  and  _457
REMARK  191  A    between atoms: _456  and  _459
REMARK  192  A    between atoms: _459  and  _460
REMARK  193  A    between atoms: _460  and  _461
REMARK  194  A    between atoms: _460  and  _462
REMARK  195  A    between atoms: _461  and  MG_705
REMARK  196  A    between atoms: _465  and  _467
REMARK  197  A    between atoms: _467  and  _468
REMARK  198  A    between atoms: _467  and  _470
REMARK  199  A    between atoms: _470  and  _471
REMARK  200  A    between atoms: _474  and  _476
REMARK  201  A    between atoms: _476  and  _477
REMARK  202  A    between atoms: _476  and  _479
REMARK  203  A    between atoms: _479  and  _480
REMARK  204  A    between atoms: _480  and  _481
REMARK  205  A    between atoms: _481  and  _482
REMARK  206  A    between atoms: _491  and  _493
REMARK  207  A    between atoms: _493  and  _494
REMARK  208  A    between atoms: _493  and  _496
REMARK  209  A    between atoms: _496  and  _497
REMARK  210  A    between atoms: _497  and  _499
REMARK  211  A    between atoms: _499  and  MG_705
REMARK  212  A    between atoms: _500  and  _502
REMARK  213  A    between atoms: _502  and  _503
REMARK  214  A    between atoms: _502  and  _505
REMARK  215  A    between atoms: _505  and  _506
REMARK  216  A    between atoms: _506  and  _507
REMARK  217  A    between atoms: _510  and  _512
REMARK  218  A    between atoms: _512  and  _513
REMARK  219  A    between atoms: _512  and  _515
REMARK  220  A    between atoms: _515  and  _516
REMARK  221  A    between atoms: _519  and  _521
REMARK  222  A    between atoms: _521  and  _522
REMARK  223  A    between atoms: _521  and  _524
REMARK  224  A    between atoms: _524  and  _525
REMARK  225  A    between atoms: _530  and  _532
REMARK  226  A    between atoms: _532  and  _533
REMARK  227  A    between atoms: _532  and  _535
REMARK  228  A    between atoms: _535  and  _536
REMARK  229  A    between atoms: _536  and  _537
REMARK  230  A    between atoms: _537  and  _538
REMARK  231  A    between atoms: _547  and  _549
REMARK  232  A    between atoms: _549  and  _550
REMARK  233  A    between atoms: _549  and  _552
REMARK  234  A    between atoms: _552  and  _553
REMARK  235  A    between atoms: _558  and  _559
REMARK  236  A    between atoms: _561  and  _563
REMARK  237  A    between atoms: _563  and  _564
REMARK  238  A    between atoms: _563  and  _566
REMARK  239  A    between atoms: _569  and  _571
REMARK  240  A    between atoms: _571  and  _572
REMARK  241  A    between atoms: _571  and  _574
REMARK  242  A    between atoms: _574  and  _575
REMARK  243  A    between atoms: _575  and  _576
REMARK  244  A    between atoms: _578  and  _580
REMARK  245  A    between atoms: _580  and  _581
REMARK  246  A    between atoms: _580  and  _583
REMARK  247  A    between atoms: _583  and  _584
REMARK  248  A    between atoms: _587  and  _589
REMARK  249  A    between atoms: _589  and  _590
REMARK  250  A    between atoms: _589  and  _592
REMARK  251  A    between atoms: _595  and  _597
REMARK  252  A    between atoms: _597  and  _598
REMARK  253  A    between atoms: _597  and  _600
REMARK  254  A    between atoms: _600  and  _601
REMARK  255  A    between atoms: _607  and  _609
REMARK  256  A    between atoms: _609  and  _610
REMARK  257  A    between atoms: _613  and  _615
REMARK  258  A    between atoms: _615  and  _616
REMARK  259  A    between atoms: _615  and  _618
REMARK  260  A    between atoms: _618  and  _619
REMARK  261  A    between atoms: _619  and  _620
REMARK  262  A    between atoms: _625  and  _627
REMARK  263  A    between atoms: _627  and  _628
REMARK  264  A    between atoms: _627  and  _630
REMARK  265  A    between atoms: _630  and  _631
REMARK  266  A    between atoms: _634  and  _636
REMARK  267  A    between atoms: _636  and  _637
REMARK  268  A    between atoms: _636  and  _639
REMARK  269  A    between atoms: _639  and  _640
REMARK  270  A    between atoms: _643  and  _645
REMARK  271  A    between atoms: _645  and  _646
REMARK  272  A    between atoms: _645  and  _648
REMARK  273  A    between atoms: _648  and  _649
REMARK  274  A    between atoms: _649  and  _650
REMARK  275  A    between atoms: _653  and  _655
REMARK  276  A    between atoms: _655  and  _656
REMARK  277  A    between atoms: _659  and  _661
REMARK  278  A    between atoms: _661  and  _662
REMARK  279  A    between atoms: _665  and  _667
REMARK  280  A    between atoms: _667  and  _668
REMARK  281  A    between atoms: _667  and  _670
REMARK  282  A    between atoms: _670  and  _671
REMARK  283  A    between atoms: _676  and  _677
REMARK  284  A    between atoms: _679  and  _681
REMARK  285  A    between atoms: _681  and  _682
REMARK  286  A    between atoms: _681  and  _684
REMARK  287  A    between atoms: _684  and  _685
REMARK  288  A    between atoms: _688  and  _690
REMARK  289  A    between atoms: _690  and  _691
REMARK  290  A    between atoms: _690  and  _693
REMARK  291  A    between atoms: _693  and  _694
REMARK  292  A    between atoms: _694  and  _695
REMARK  293  A    between atoms: _695  and  _696
REMARK                            x       y       z     vdW  Elec       q    Type
REMARK                         _______ _______ _______ _____ _____    ______ ____
ROOT
ATOM      1  CA  ASP A   1      19.672  41.640  28.184  0.00  0.00    +0.144 C 
ENDROOT
BRANCH   1   2
ATOM      2  N   ASP A   1      18.303  41.227  28.015  0.00  0.00    -0.239 NA
ATOM      3  H   ASP A   1      17.573  41.542  28.686  0.00  0.00    +0.142 HD
ENDBRANCH   1   2
BRANCH   1   4
ATOM      4  C   ASP A   1      20.608  40.425  28.221  0.00  0.00    +0.225 C 
ATOM      5  O   ASP A   1      21.805  40.544  27.937  0.00  0.00    -0.287 OA
ENDBRANCH   1   4
BRANCH   1   6
ATOM      6  CB  ASP A   1      19.787  42.486  29.439  0.00  0.00    +0.139 C 
BRANCH   6   7
ATOM      7  CG  ASP A   1      21.102  43.179  29.529  0.00  0.00    +0.367 C 
ATOM      8  OD2 ASP A   1      22.064  42.531  29.998  0.00  0.00    -0.246 OA
ATOM      9  OD1 ASP A   1      21.175  44.357  29.103  0.00  0.00    -0.246 OA
ENDBRANCH   6   7
ENDBRANCH   1   6
TORSDOF 4
REMARK  Name = ../refined-set-2016/2zcr/2zcr_pocket.pdb
REMARK  293 active torsions:
REMARK  status: ('A' for Active; 'I' for Inactive)
REMARK    1  A    between atoms: _1  and  _3
REMARK    2  A    between atoms: _3  and  _4
REMARK    3  A    between atoms: _3  and  _6
REMARK    4  A    between atoms: _6  and  _7
REMARK    5  A    between atoms: _7  and  _8
REMARK    6  A    between atoms: _10  and  _12
REMARK    7  A    between atoms: _12  and  _13
REMARK    8  A    between atoms: _12  and  _15
REMARK    9  A    between atoms: _15  and  _16
REMARK   10  A    between atoms: _21  and  _23
REMARK   11  A    between atoms: _23  and  _24
REMARK   12  A    between atoms: _23  and  _26
REMARK   13  A    between atoms: _26  and  _27
REMARK   14  A    between atoms: _29  and  _31
REMARK   15  A    between atoms: _31  and  _32
REMARK   16  A    between atoms: _31  and  _34
REMARK   17  A    between atoms: _34  and  _35
REMARK   18  A    between atoms: _35  and  _36
REMARK   19  A    between atoms: _36  and  _37
REMARK   20  A    between atoms: _37  and  _38
REMARK   21  A    between atoms: _42  and  _44
REMARK   22  A    between atoms: _44  and  _45
REMARK   23  A    between atoms: _44  and  _47
REMARK   24  A    between atoms: _47  and  _48
REMARK   25  A    between atoms: _50  and  _52
REMARK   26  A    between atoms: _52  and  _53
REMARK   27  A    between atoms: _52  and  _55
REMARK   28  A    between atoms: _55  and  _56
REMARK   29  A    between atoms: _62  and  _64
REMARK   30  A    between atoms: _64  and  _65
REMARK   31  A    between atoms: _68  and  _70
REMARK   32  A    between atoms: _70  and  _71
REMARK   33  A    between atoms: _70  and  _73
REMARK   34  A    between atoms: _73  and  _74
REMARK   35  A    between atoms: _80  and  _82
REMARK   36  A    between atoms: _82  and  _83
REMARK   37  A    between atoms: _82  and  _85
REMARK   38  A    between atoms: _85  and  _86
REMARK   39  A    between atoms: _89  and  _91
REMARK   40  A    between atoms: _91  and  _92
REMARK   41  A    between atoms: _91  and  _94
REMARK   42  A    between atoms: _97  and  _99
REMARK   43  A    between atoms: _99  and  _100
REMARK   44  A    between atoms: _99  and  _102
REMARK   45  A    between atoms: _102  and  _103
REMARK   46  A    between atoms: _106  and  _108
REMARK   47  A    between atoms: _108  and  _109
REMARK   48  A    between atoms: _108  and  _111
REMARK   49  A    between atoms: _111  and  _112
REMARK   50  A    between atoms: _117  and  _118
REMARK   51  A    between atoms: _120  and  _122
REMARK   52  A    between atoms: _122  and  _123
REMARK   53  A    between atoms: _122  and  _125
REMARK   54  A    between atoms: _127  and  _129
REMARK   55  A    between atoms: _129  and  _130
REMARK   56  A    between atoms: _129  and  _132
REMARK   57  A    between atoms: _132  and  _133
REMARK   58  A    between atoms: _133  and  _134
REMARK   59  A    between atoms: _134  and  _135
REMARK   60  A    between atoms: _144  and  _146
REMARK   61  A    between atoms: _146  and  _147
REMARK   62  A    between atoms: _146  and  _149
REMARK   63  A    between atoms: _149  and  _150
REMARK   64  A    between atoms: _153  and  _155
REMARK   65  A    between atoms: _155  and  _156
REMARK   66  A    between atoms: _155  and  _158
REMARK   67  A    between atoms: _158  and  _159
REMARK   68  A    between atoms: _162  and  _164
REMARK   69  A    between atoms: _164  and  _165
REMARK   70  A    between atoms: _164  and  _167
REMARK   71  A    between atoms: _167  and  _168
REMARK   72  A    between atoms: _171  and  _173
REMARK   73  A    between atoms: _173  and  _174
REMARK   74  A    between atoms: _173  and  _176
REMARK   75  A    between atoms: _179  and  _181
REMARK   76  A    between atoms: _181  and  _182
REMARK   77  A    between atoms: _181  and  _184
REMARK   78  A    between atoms: _184  and  _185
REMARK   79  A    between atoms: _188  and  _190
REMARK   80  A    between atoms: _190  and  _191
REMARK   81  A    between atoms: _190  and  _193
REMARK   82  A    between atoms: _193  and  _194
REMARK   83  A    between atoms: _199  and  _200
REMARK   84  A    between atoms: _202  and  _204
REMARK   85  A    between atoms: _204  and  _205
REMARK   86  A    between atoms: _204  and  _207
REMARK   87  A    between atoms: _209  and  _211
REMARK   88  A    between atoms: _211  and  _212
REMARK   89  A    between atoms: _211  and  _214
REMARK   90  A    between atoms: _217  and  _219
REMARK   91  A    between atoms: _219  and  _220
REMARK   92  A    between atoms: _223  and  _225
REMARK   93  A    between atoms: _225  and  _226
REMARK   94  A    between atoms: _228  and  _230
REMARK   95  A    between atoms: _230  and  _231
REMARK   96  A    between atoms: _230  and  _233
REMARK   97  A    between atoms: _233  and  _234
REMARK   98  A    between atoms: _237  and  _239
REMARK   99  A    between atoms: _239  and  _240
REMARK  100  A    between atoms: _239  and  _242
REMARK  101  A    between atoms: _245  and  _247
REMARK  102  A    between atoms: _247  and  _248
REMARK  103  A    between atoms: _250  and  _252
REMARK  104  A    between atoms: _252  and  _253
REMARK  105  A    between atoms: _252  and  _255
REMARK  106  A    between atoms: _255  and  _256
REMARK  107  A    between atoms: _256  and  _257
REMARK  108  A    between atoms: _260  and  _262
REMARK  109  A    between atoms: _262  and  _263
REMARK  110  A    between atoms: _262  and  _265
REMARK  111  A    between atoms: _268  and  _270
REMARK  112  A    between atoms: _270  and  _271
REMARK  113  A    between atoms: _270  and  _273
REMARK  114  A    between atoms: _273  and  _274
REMARK  115  A    between atoms: _277  and  _279
REMARK  116  A    between atoms: _279  and  _280
REMARK  117  A    between atoms: _279  and  _282
REMARK  118  A    between atoms: _282  and  _283
REMARK  119  A    between atoms: _286  and  _288
REMARK  120  A    between atoms: _288  and  _289
REMARK  121  A    between atoms: _288  and  _291
REMARK  122  A    between atoms: _291  and  _292
REMARK  123  A    between atoms: _295  and  _297
REMARK  124  A    between atoms: _297  and  _298
REMARK  125  A    between atoms: _297  and  _300
REMARK  126  A    between atoms: _300  and  _301
REMARK  127  A    between atoms: _304  and  _306
REMARK  128  A    between atoms: _306  and  _307
REMARK  129  A    between atoms: _306  and  _309
REMARK  130  A    between atoms: _309  and  _310
REMARK  131  A    between atoms: _312  and  _314
REMARK  132  A    between atoms: _314  and  _315
REMARK  133  A    between atoms: _314  and  _317
REMARK  134  A    between atoms: _317  and  _318
REMARK  135  A    between atoms: _321  and  _323
REMARK  136  A    between atoms: _323  and  _324
REMARK  137  A    between atoms: _323  and  _326
REMARK  138  A    between atoms: _326  and  _327
REMARK  139  A    between atoms: _332  and  _333
REMARK  140  A    between atoms: _335  and  _337
REMARK  141  A    between atoms: _337  and  _338
REMARK  142  A    between atoms: _337  and  _340
REMARK  143  A    between atoms: _343  and  _345
REMARK  144  A    between atoms: _345  and  _346
REMARK  145  A    between atoms: _349  and  _351
REMARK  146  A    between atoms: _351  and  _352
REMARK  147  A    between atoms: _351  and  _354
REMARK  148  A    between atoms: _354  and  _355
REMARK  149  A    between atoms: _355  and  _356
REMARK  150  A    between atoms: _356  and  _357
REMARK  151  A    between atoms: _366  and  _368
REMARK  152  A    between atoms: _368  and  _369
REMARK  153  A    between atoms: _368  and  _371
REMARK  154  A    between atoms: _371  and  _372
REMARK  155  A    between atoms: _372  and  _373
REMARK  156  A    between atoms: _373  and  _374
REMARK  157  A    between atoms: _383  and  _385
REMARK  158  A    between atoms: _385  and  _386
REMARK  159  A    between atoms: _385  and  _388
REMARK  160  A    between atoms: _388  and  _389
REMARK  161  A    between atoms: _392  and  _394
REMARK  162  A    between atoms: _394  and  _395
REMARK  163  A    between atoms: _397  and  _399
REMARK  164  A    between atoms: _399  and  _400
REMARK  165  A    between atoms: _399  and  _402
REMARK  166  A    between atoms: _402  and  _403
REMARK  167  A    between atoms: _403  and  _404
REMARK  168  A    between atoms: _407  and  _409
REMARK  169  A    between atoms: _409  and  _410
REMARK  170  A    between atoms: _409  and  _412
REMARK  171  A    between atoms: _412  and  _413
REMARK  172  A    between atoms: _415  and  _417
REMARK  173  A    between atoms: _417  and  _418
REMARK  174  A    between atoms: _417  and  _420
REMARK  175  A    between atoms: _420  and  _421
REMARK  176  A    between atoms: _424  and  _426
REMARK  177  A    between atoms: _426  and  _427
REMARK  178  A    between atoms: _426  and  _429
REMARK  179  A    between atoms: _429  and  _430
REMARK  180  A    between atoms: _430  and  _431
REMARK  181  A    between atoms: _436  and  _438
REMARK  182  A    between atoms: _438  and  _439
REMARK  183  A    between atoms: _438  and  _441
REMARK  184  A    between atoms: _441  and  _442
REMARK  185  A    between atoms: _445  and  _447
REMARK  186  A    between atoms: _447  and  _448
REMARK  187  A    between atoms: _447  and  _450
REMARK  188  A    between atoms: _450  and  _451
REMARK  189  A    between atoms: _454  and  _456
REMARK  190  A    between atoms: _456  and  _457
REMARK  191  A    between atoms: _456  and  _459
REMARK  192  A    between atoms: _459  and  _460
REMARK  193  A    between atoms: _460  and  _461
REMARK  194  A    between atoms: _460  and  _462
REMARK  195  A    between atoms: _461  and  MG_705
REMARK  196  A    between atoms: _465  and  _467
REMARK  197  A    between atoms: _467  and  _468
REMARK  198  A    between atoms: _467  and  _470
REMARK  199  A    between atoms: _470  and  _471
REMARK  200  A    between atoms: _474  and  _476
REMARK  201  A    between atoms: _476  and  _477
REMARK  202  A    between atoms: _476  and  _479
REMARK  203  A    between atoms: _479  and  _480
REMARK  204  A    between atoms: _480  and  _481
REMARK  205  A    between atoms: _481  and  _482
REMARK  206  A    between atoms: _491  and  _493
REMARK  207  A    between atoms: _493  and  _494
REMARK  208  A    between atoms: _493  and  _496
REMARK  209  A    between atoms: _496  and  _497
REMARK  210  A    between atoms: _497  and  _499
REMARK  211  A    between atoms: _499  and  MG_705
REMARK  212  A    between atoms: _500  and  _502
REMARK  213  A    between atoms: _502  and  _503
REMARK  214  A    between atoms: _502  and  _505
REMARK  215  A    between atoms: _505  and  _506
REMARK  216  A    between atoms: _506  and  _507
REMARK  217  A    between atoms: _510  and  _512
REMARK  218  A    between atoms: _512  and  _513
REMARK  219  A    between atoms: _512  and  _515
REMARK  220  A    between atoms: _515  and  _516
REMARK  221  A    between atoms: _519  and  _521
REMARK  222  A    between atoms: _521  and  _522
REMARK  223  A    between atoms: _521  and  _524
REMARK  224  A    between atoms: _524  and  _525
REMARK  225  A    between atoms: _530  and  _532
REMARK  226  A    between atoms: _532  and  _533
REMARK  227  A    between atoms: _532  and  _535
REMARK  228  A    between atoms: _535  and  _536
REMARK  229  A    between atoms: _536  and  _537
REMARK  230  A    between atoms: _537  and  _538
REMARK  231  A    between atoms: _547  and  _549
REMARK  232  A    between atoms: _549  and  _550
REMARK  233  A    between atoms: _549  and  _552
REMARK  234  A    between atoms: _552  and  _553
REMARK  235  A    between atoms: _558  and  _559
REMARK  236  A    between atoms: _561  and  _563
REMARK  237  A    between atoms: _563  and  _564
REMARK  238  A    between atoms: _563  and  _566
REMARK  239  A    between atoms: _569  and  _571
REMARK  240  A    between atoms: _571  and  _572
REMARK  241  A    between atoms: _571  and  _574
REMARK  242  A    between atoms: _574  and  _575
REMARK  243  A    between atoms: _575  and  _576
REMARK  244  A    between atoms: _578  and  _580
REMARK  245  A    between atoms: _580  and  _581
REMARK  246  A    between atoms: _580  and  _583
REMARK  247  A    between atoms: _583  and  _584
REMARK  248  A    between atoms: _587  and  _589
REMARK  249  A    between atoms: _589  and  _590
REMARK  250  A    between atoms: _589  and  _592
REMARK  251  A    between atoms: _595  and  _597
REMARK  252  A    between atoms: _597  and  _598
REMARK  253  A    between atoms: _597  and  _600
REMARK  254  A    between atoms: _600  and  _601
REMARK  255  A    between atoms: _607  and  _609
REMARK  256  A    between atoms: _609  and  _610
REMARK  257  A    between atoms: _613  and  _615
REMARK  258  A    between atoms: _615  and  _616
REMARK  259  A    between atoms: _615  and  _618
REMARK  260  A    between atoms: _618  and  _619
REMARK  261  A    between atoms: _619  and  _620
REMARK  262  A    between atoms: _625  and  _627
REMARK  263  A    between atoms: _627  and  _628
REMARK  264  A    between atoms: _627  and  _630
REMARK  265  A    between atoms: _630  and  _631
REMARK  266  A    between atoms: _634  and  _636
REMARK  267  A    between atoms: _636  and  _637
REMARK  268  A    between atoms: _636  and  _639
REMARK  269  A    between atoms: _639  and  _640
REMARK  270  A    between atoms: _643  and  _645
REMARK  271  A    between atoms: _645  and  _646
REMARK  272  A    between atoms: _645  and  _648
REMARK  273  A    between atoms: _648  and  _649
REMARK  274  A    between atoms: _649  and  _650
REMARK  275  A    between atoms: _653  and  _655
REMARK  276  A    between atoms: _655  and  _656
REMARK  277  A    between atoms: _659  and  _661
REMARK  278  A    between atoms: _661  and  _662
REMARK  279  A    between atoms: _665  and  _667
REMARK  280  A    between atoms: _667  and  _668
REMARK  281  A    between atoms: _667  and  _670
REMARK  282  A    between atoms: _670  and  _671
REMARK  283  A    between atoms: _676  and  _677
REMARK  284  A    between atoms: _679  and  _681
REMARK  285  A    between atoms: _681  and  _682
REMARK  286  A    between atoms: _681  and  _684
REMARK  287  A    between atoms: _684  and  _685
REMARK  288  A    between atoms: _688  and  _690
REMARK  289  A    between atoms: _690  and  _691
REMARK  290  A    between atoms: _690  and  _693
REMARK  291  A    between atoms: _693  and  _694
REMARK  292  A    between atoms: _694  and  _695
REMARK  293  A    between atoms: _695  and  _696
REMARK                            x       y       z     vdW  Elec       q    Type
REMARK                         _______ _______ _______ _____ _____    ______ ____
ROOT
ATOM      1  CA  TYR A   1      16.266  50.003  25.842  0.00  0.00    +0.149 C 
ENDROOT
BRANCH   1   2
ATOM      2  C   TYR A   1      16.140  50.953  27.049  0.00  0.00    +0.239 C 
ATOM      3  O   TYR A   1      15.855  50.526  28.159  0.00  0.00    -0.274 OA
ATOM      4  N   CYS A   2      16.360  52.245  26.835  0.00  0.00    -0.297 N 
ATOM      5  H   CYS A   2      16.614  52.574  25.882  0.00  0.00    +0.150 HD
BRANCH   4   6
ATOM      6  CA  CYS A   2      16.249  53.205  27.925  0.00  0.00    +0.149 C 
BRANCH   6   7
ATOM      7  C   CYS A   2      14.808  53.198  28.434  0.00  0.00    +0.228 C 
ATOM      8  O   CYS A   2      14.566  53.329  29.632  0.00  0.00    -0.286 OA
ENDBRANCH   6   7
BRANCH   6   9
ATOM      9  CB  CYS A   2      16.608  54.615  27.454  0.00  0.00    +0.096 C 
ATOM     10  SG  CYS A   2      18.404  54.810  27.099  0.00  0.00    -0.080 S 
ENDBRANCH   6   9
ENDBRANCH   4   6
ENDBRANCH   1   2
BRANCH   1  11
ATOM     11  N   TYR A   1      15.686  50.635  24.661  0.00  0.00    -0.238 NA
ATOM     12  H   TYR A   1      16.303  50.952  23.886  0.00  0.00    +0.142 HD
ENDBRANCH   1  11
BRANCH   1  13
ATOM     13  CB  TYR A   1      17.749  49.665  25.575  0.00  0.00    +0.053 C 
BRANCH  13  14
ATOM     14  CG  TYR A   1      18.473  49.206  26.803  0.00  0.00    -0.020 A 
ATOM     15  CD2 TYR A   1      19.264  50.089  27.530  0.00  0.00    -0.001 A 
ATOM     16  CE2 TYR A   1      19.935  49.683  28.668  0.00  0.00    +0.036 A 
ATOM     17  CZ  TYR A   1      19.817  48.368  29.102  0.00  0.00    +0.134 A 
ATOM     18  CE1 TYR A   1      19.041  47.463  28.402  0.00  0.00    +0.036 A 
ATOM     19  CD1 TYR A   1      18.367  47.889  27.247  0.00  0.00    -0.001 A 
BRANCH  17  20
ATOM     20  OH  TYR A   1      20.441  47.978  30.268  0.00  0.00    -0.506 OA
ATOM     21  HH  TYR A   1      20.952  48.741  30.639  0.00  0.00    +0.292 HD
ENDBRANCH  17  20
ENDBRANCH  13  14
ENDBRANCH   1  13
TORSDOF 8
REMARK  Name = ../refined-set-2016/2zcr/2zcr_pocket.pdb
REMARK  293 active torsions:
REMARK  status: ('A' for Active; 'I' for Inactive)
REMARK    1  A    between atoms: _1  and  _3
REMARK    2  A    between atoms: _3  and  _4
REMARK    3  A    between atoms: _3  and  _6
REMARK    4  A    between atoms: _6  and  _7
REMARK    5  A    between atoms: _7  and  _8
REMARK    6  A    between atoms: _10  and  _12
REMARK    7  A    between atoms: _12  and  _13
REMARK    8  A    between atoms: _12  and  _15
REMARK    9  A    between atoms: _15  and  _16
REMARK   10  A    between atoms: _21  and  _23
REMARK   11  A    between atoms: _23  and  _24
REMARK   12  A    between atoms: _23  and  _26
REMARK   13  A    between atoms: _26  and  _27
REMARK   14  A    between atoms: _29  and  _31
REMARK   15  A    between atoms: _31  and  _32
REMARK   16  A    between atoms: _31  and  _34
REMARK   17  A    between atoms: _34  and  _35
REMARK   18  A    between atoms: _35  and  _36
REMARK   19  A    between atoms: _36  and  _37
REMARK   20  A    between atoms: _37  and  _38
REMARK   21  A    between atoms: _42  and  _44
REMARK   22  A    between atoms: _44  and  _45
REMARK   23  A    between atoms: _44  and  _47
REMARK   24  A    between atoms: _47  and  _48
REMARK   25  A    between atoms: _50  and  _52
REMARK   26  A    between atoms: _52  and  _53
REMARK   27  A    between atoms: _52  and  _55
REMARK   28  A    between atoms: _55  and  _56
REMARK   29  A    between atoms: _62  and  _64
REMARK   30  A    between atoms: _64  and  _65
REMARK   31  A    between atoms: _68  and  _70
REMARK   32  A    between atoms: _70  and  _71
REMARK   33  A    between atoms: _70  and  _73
REMARK   34  A    between atoms: _73  and  _74
REMARK   35  A    between atoms: _80  and  _82
REMARK   36  A    between atoms: _82  and  _83
REMARK   37  A    between atoms: _82  and  _85
REMARK   38  A    between atoms: _85  and  _86
REMARK   39  A    between atoms: _89  and  _91
REMARK   40  A    between atoms: _91  and  _92
REMARK   41  A    between atoms: _91  and  _94
REMARK   42  A    between atoms: _97  and  _99
REMARK   43  A    between atoms: _99  and  _100
REMARK   44  A    between atoms: _99  and  _102
REMARK   45  A    between atoms: _102  and  _103
REMARK   46  A    between atoms: _106  and  _108
REMARK   47  A    between atoms: _108  and  _109
REMARK   48  A    between atoms: _108  and  _111
REMARK   49  A    between atoms: _111  and  _112
REMARK   50  A    between atoms: _117  and  _118
REMARK   51  A    between atoms: _120  and  _122
REMARK   52  A    between atoms: _122  and  _123
REMARK   53  A    between atoms: _122  and  _125
REMARK   54  A    between atoms: _127  and  _129
REMARK   55  A    between atoms: _129  and  _130
REMARK   56  A    between atoms: _129  and  _132
REMARK   57  A    between atoms: _132  and  _133
REMARK   58  A    between atoms: _133  and  _134
REMARK   59  A    between atoms: _134  and  _135
REMARK   60  A    between atoms: _144  and  _146
REMARK   61  A    between atoms: _146  and  _147
REMARK   62  A    between atoms: _146  and  _149
REMARK   63  A    between atoms: _149  and  _150
REMARK   64  A    between atoms: _153  and  _155
REMARK   65  A    between atoms: _155  and  _156
REMARK   66  A    between atoms: _155  and  _158
REMARK   67  A    between atoms: _158  and  _159
REMARK   68  A    between atoms: _162  and  _164
REMARK   69  A    between atoms: _164  and  _165
REMARK   70  A    between atoms: _164  and  _167
REMARK   71  A    between atoms: _167  and  _168
REMARK   72  A    between atoms: _171  and  _173
REMARK   73  A    between atoms: _173  and  _174
REMARK   74  A    between atoms: _173  and  _176
REMARK   75  A    between atoms: _179  and  _181
REMARK   76  A    between atoms: _181  and  _182
REMARK   77  A    between atoms: _181  and  _184
REMARK   78  A    between atoms: _184  and  _185
REMARK   79  A    between atoms: _188  and  _190
REMARK   80  A    between atoms: _190  and  _191
REMARK   81  A    between atoms: _190  and  _193
REMARK   82  A    between atoms: _193  and  _194
REMARK   83  A    between atoms: _199  and  _200
REMARK   84  A    between atoms: _202  and  _204
REMARK   85  A    between atoms: _204  and  _205
REMARK   86  A    between atoms: _204  and  _207
REMARK   87  A    between atoms: _209  and  _211
REMARK   88  A    between atoms: _211  and  _212
REMARK   89  A    between atoms: _211  and  _214
REMARK   90  A    between atoms: _217  and  _219
REMARK   91  A    between atoms: _219  and  _220
REMARK   92  A    between atoms: _223  and  _225
REMARK   93  A    between atoms: _225  and  _226
REMARK   94  A    between atoms: _228  and  _230
REMARK   95  A    between atoms: _230  and  _231
REMARK   96  A    between atoms: _230  and  _233
REMARK   97  A    between atoms: _233  and  _234
REMARK   98  A    between atoms: _237  and  _239
REMARK   99  A    between atoms: _239  and  _240
REMARK  100  A    between atoms: _239  and  _242
REMARK  101  A    between atoms: _245  and  _247
REMARK  102  A    between atoms: _247  and  _248
REMARK  103  A    between atoms: _250  and  _252
REMARK  104  A    between atoms: _252  and  _253
REMARK  105  A    between atoms: _252  and  _255
REMARK  106  A    between atoms: _255  and  _256
REMARK  107  A    between atoms: _256  and  _257
REMARK  108  A    between atoms: _260  and  _262
REMARK  109  A    between atoms: _262  and  _263
REMARK  110  A    between atoms: _262  and  _265
REMARK  111  A    between atoms: _268  and  _270
REMARK  112  A    between atoms: _270  and  _271
REMARK  113  A    between atoms: _270  and  _273
REMARK  114  A    between atoms: _273  and  _274
REMARK  115  A    between atoms: _277  and  _279
REMARK  116  A    between atoms: _279  and  _280
REMARK  117  A    between atoms: _279  and  _282
REMARK  118  A    between atoms: _282  and  _283
REMARK  119  A    between atoms: _286  and  _288
REMARK  120  A    between atoms: _288  and  _289
REMARK  121  A    between atoms: _288  and  _291
REMARK  122  A    between atoms: _291  and  _292
REMARK  123  A    between atoms: _295  and  _297
REMARK  124  A    between atoms: _297  and  _298
REMARK  125  A    between atoms: _297  and  _300
REMARK  126  A    between atoms: _300  and  _301
REMARK  127  A    between atoms: _304  and  _306
REMARK  128  A    between atoms: _306  and  _307
REMARK  129  A    between atoms: _306  and  _309
REMARK  130  A    between atoms: _309  and  _310
REMARK  131  A    between atoms: _312  and  _314
REMARK  132  A    between atoms: _314  and  _315
REMARK  133  A    between atoms: _314  and  _317
REMARK  134  A    between atoms: _317  and  _318
REMARK  135  A    between atoms: _321  and  _323
REMARK  136  A    between atoms: _323  and  _324
REMARK  137  A    between atoms: _323  and  _326
REMARK  138  A    between atoms: _326  and  _327
REMARK  139  A    between atoms: _332  and  _333
REMARK  140  A    between atoms: _335  and  _337
REMARK  141  A    between atoms: _337  and  _338
REMARK  142  A    between atoms: _337  and  _340
REMARK  143  A    between atoms: _343  and  _345
REMARK  144  A    between atoms: _345  and  _346
REMARK  145  A    between atoms: _349  and  _351
REMARK  146  A    between atoms: _351  and  _352
REMARK  147  A    between atoms: _351  and  _354
REMARK  148  A    between atoms: _354  and  _355
REMARK  149  A    between atoms: _355  and  _356
REMARK  150  A    between atoms: _356  and  _357
REMARK  151  A    between atoms: _366  and  _368
REMARK  152  A    between atoms: _368  and  _369
REMARK  153  A    between atoms: _368  and  _371
REMARK  154  A    between atoms: _371  and  _372
REMARK  155  A    between atoms: _372  and  _373
REMARK  156  A    between atoms: _373  and  _374
REMARK  157  A    between atoms: _383  and  _385
REMARK  158  A    between atoms: _385  and  _386
REMARK  159  A    between atoms: _385  and  _388
REMARK  160  A    between atoms: _388  and  _389
REMARK  161  A    between atoms: _392  and  _394
REMARK  162  A    between atoms: _394  and  _395
REMARK  163  A    between atoms: _397  and  _399
REMARK  164  A    between atoms: _399  and  _400
REMARK  165  A    between atoms: _399  and  _402
REMARK  166  A    between atoms: _402  and  _403
REMARK  167  A    between atoms: _403  and  _404
REMARK  168  A    between atoms: _407  and  _409
REMARK  169  A    between atoms: _409  and  _410
REMARK  170  A    between atoms: _409  and  _412
REMARK  171  A    between atoms: _412  and  _413
REMARK  172  A    between atoms: _415  and  _417
REMARK  173  A    between atoms: _417  and  _418
REMARK  174  A    between atoms: _417  and  _420
REMARK  175  A    between atoms: _420  and  _421
REMARK  176  A    between atoms: _424  and  _426
REMARK  177  A    between atoms: _426  and  _427
REMARK  178  A    between atoms: _426  and  _429
REMARK  179  A    between atoms: _429  and  _430
REMARK  180  A    between atoms: _430  and  _431
REMARK  181  A    between atoms: _436  and  _438
REMARK  182  A    between atoms: _438  and  _439
REMARK  183  A    between atoms: _438  and  _441
REMARK  184  A    between atoms: _441  and  _442
REMARK  185  A    between atoms: _445  and  _447
REMARK  186  A    between atoms: _447  and  _448
REMARK  187  A    between atoms: _447  and  _450
REMARK  188  A    between atoms: _450  and  _451
REMARK  189  A    between atoms: _454  and  _456
REMARK  190  A    between atoms: _456  and  _457
REMARK  191  A    between atoms: _456  and  _459
REMARK  192  A    between atoms: _459  and  _460
REMARK  193  A    between atoms: _460  and  _461
REMARK  194  A    between atoms: _460  and  _462
REMARK  195  A    between atoms: _461  and  MG_705
REMARK  196  A    between atoms: _465  and  _467
REMARK  197  A    between atoms: _467  and  _468
REMARK  198  A    between atoms: _467  and  _470
REMARK  199  A    between atoms: _470  and  _471
REMARK  200  A    between atoms: _474  and  _476
REMARK  201  A    between atoms: _476  and  _477
REMARK  202  A    between atoms: _476  and  _479
REMARK  203  A    between atoms: _479  and  _480
REMARK  204  A    between atoms: _480  and  _481
REMARK  205  A    between atoms: _481  and  _482
REMARK  206  A    between atoms: _491  and  _493
REMARK  207  A    between atoms: _493  and  _494
REMARK  208  A    between atoms: _493  and  _496
REMARK  209  A    between atoms: _496  and  _497
REMARK  210  A    between atoms: _497  and  _499
REMARK  211  A    between atoms: _499  and  MG_705
REMARK  212  A    between atoms: _500  and  _502
REMARK  213  A    between atoms: _502  and  _503
REMARK  214  A    between atoms: _502  and  _505
REMARK  215  A    between atoms: _505  and  _506
REMARK  216  A    between atoms: _506  and  _507
REMARK  217  A    between atoms: _510  and  _512
REMARK  218  A    between atoms: _512  and  _513
REMARK  219  A    between atoms: _512  and  _515
REMARK  220  A    between atoms: _515  and  _516
REMARK  221  A    between atoms: _519  and  _521
REMARK  222  A    between atoms: _521  and  _522
REMARK  223  A    between atoms: _521  and  _524
REMARK  224  A    between atoms: _524  and  _525
REMARK  225  A    between atoms: _530  and  _532
REMARK  226  A    between atoms: _532  and  _533
REMARK  227  A    between atoms: _532  and  _535
REMARK  228  A    between atoms: _535  and  _536
REMARK  229  A    between atoms: _536  and  _537
REMARK  230  A    between atoms: _537  and  _538
REMARK  231  A    between atoms: _547  and  _549
REMARK  232  A    between atoms: _549  and  _550
REMARK  233  A    between atoms: _549  and  _552
REMARK  234  A    between atoms: _552  and  _553
REMARK  235  A    between atoms: _558  and  _559
REMARK  236  A    between atoms: _561  and  _563
REMARK  237  A    between atoms: _563  and  _564
REMARK  238  A    between atoms: _563  and  _566
REMARK  239  A    between atoms: _569  and  _571
REMARK  240  A    between atoms: _571  and  _572
REMARK  241  A    between atoms: _571  and  _574
REMARK  242  A    between atoms: _574  and  _575
REMARK  243  A    between atoms: _575  and  _576
REMARK  244  A    between atoms: _578  and  _580
REMARK  245  A    between atoms: _580  and  _581
REMARK  246  A    between atoms: _580  and  _583
REMARK  247  A    between atoms: _583  and  _584
REMARK  248  A    between atoms: _587  and  _589
REMARK  249  A    between atoms: _589  and  _590
REMARK  250  A    between atoms: _589  and  _592
REMARK  251  A    between atoms: _595  and  _597
REMARK  252  A    between atoms: _597  and  _598
REMARK  253  A    between atoms: _597  and  _600
REMARK  254  A    between atoms: _600  and  _601
REMARK  255  A    between atoms: _607  and  _609
REMARK  256  A    between atoms: _609  and  _610
REMARK  257  A    between atoms: _613  and  _615
REMARK  258  A    between atoms: _615  and  _616
REMARK  259  A    between atoms: _615  and  _618
REMARK  260  A    between atoms: _618  and  _619
REMARK  261  A    between atoms: _619  and  _620
REMARK  262  A    between atoms: _625  and  _627
REMARK  263  A    between atoms: _627  and  _628
REMARK  264  A    between atoms: _627  and  _630
REMARK  265  A    between atoms: _630  and  _631
REMARK  266  A    between atoms: _634  and  _636
REMARK  267  A    between atoms: _636  and  _637
REMARK  268  A    between atoms: _636  and  _639
REMARK  269  A    between atoms: _639  and  _640
REMARK  270  A    between atoms: _643  and  _645
REMARK  271  A    between atoms: _645  and  _646
REMARK  272  A    between atoms: _645  and  _648
REMARK  273  A    between atoms: _648  and  _649
REMARK  274  A    between atoms: _649  and  _650
REMARK  275  A    between atoms: _653  and  _655
REMARK  276  A    between atoms: _655  and  _656
REMARK  277  A    between atoms: _659  and  _661
REMARK  278  A    between atoms: _661  and  _662
REMARK  279  A    between atoms: _665  and  _667
REMARK  280  A    between atoms: _667  and  _668
REMARK  281  A    between atoms: _667  and  _670
REMARK  282  A    between atoms: _670  and  _671
REMARK  283  A    between atoms: _676  and  _677
REMARK  284  A    between atoms: _679  and  _681
REMARK  285  A    between atoms: _681  and  _682
REMARK  286  A    between atoms: _681  and  _684
REMARK  287  A    between atoms: _684  and  _685
REMARK  288  A    between atoms: _688  and  _690
REMARK  289  A    between atoms: _690  and  _691
REMARK  290  A    between atoms: _690  and  _693
REMARK  291  A    between atoms: _693  and  _694
REMARK  292  A    between atoms: _694  and  _695
REMARK  293  A    between atoms: _695  and  _696
REMARK                            x       y       z     vdW  Elec       q    Type
REMARK                         _______ _______ _______ _____ _____    ______ ____
ROOT
ATOM      1  CA  GLY A   6       9.489  56.491  35.886  0.00  0.00    +0.176 C 
ENDROOT
BRANCH   1   2
ATOM      2  C   GLY A   6       7.992  56.243  35.870  0.00  0.00    +0.243 C 
ATOM      3  O   GLY A   6       7.220  56.849  36.619  0.00  0.00    -0.273 OA
ATOM      4  N   GLU A   7       7.556  55.310  35.036  0.00  0.00    -0.297 N 
ATOM      5  H   GLU A   7       8.220  54.787  34.430  0.00  0.00    +0.150 HD
BRANCH   4   6
ATOM      6  CA  GLU A   7       6.107  55.030  34.986  0.00  0.00    +0.149 C 
BRANCH   6   7
ATOM      7  C   GLU A   7       5.589  54.490  36.338  0.00  0.00    +0.241 C 
ATOM      8  N   VAL A   8       6.277  53.503  36.913  0.00  0.00    -0.297 N 
ATOM      9  H   VAL A   8       7.143  53.141  36.466  0.00  0.00    +0.150 HD
ATOM     10  O   GLU A   7       4.567  54.964  36.864  0.00  0.00    -0.273 OA
BRANCH   8  11
ATOM     11  CA  VAL A   8       5.808  52.931  38.177  0.00  0.00    +0.149 C 
BRANCH  11  12
ATOM     12  C   VAL A   8       5.823  53.939  39.325  0.00  0.00    +0.241 C 
ATOM     13  O   VAL A   8       4.974  53.871  40.201  0.00  0.00    -0.273 OA
ATOM     14  N   LEU A   9       6.772  54.879  39.339  0.00  0.00    -0.297 N 
ATOM     15  H   LEU A   9       7.503  54.892  38.600  0.00  0.00    +0.150 HD
BRANCH  14  16
ATOM     16  CA  LEU A   9       6.781  55.895  40.401  0.00  0.00    +0.149 C 
BRANCH  16  17
ATOM     17  C   LEU A   9       5.753  57.019  40.194  0.00  0.00    +0.241 C 
ATOM     18  O   LEU A   9       5.466  57.818  41.099  0.00  0.00    -0.273 OA
ATOM     19  N   THR A  10       5.182  57.087  39.013  0.00  0.00    -0.296 N 
ATOM     20  H   THR A  10       5.383  56.364  38.293  0.00  0.00    +0.150 HD
BRANCH  19  21
ATOM     21  CA  THR A  10       4.265  58.180  38.716  0.00  0.00    +0.164 C 
BRANCH  21  22
ATOM     22  C   THR A  10       3.130  58.433  39.706  0.00  0.00    +0.229 C 
ATOM     23  O   THR A  10       2.947  59.572  40.150  0.00  0.00    -0.286 OA
ENDBRANCH  21  22
BRANCH  21  24
ATOM     24  CB  THR A  10       3.729  58.051  37.263  0.00  0.00    +0.136 C 
ATOM     25  CG2 THR A  10       2.592  59.025  36.996  0.00  0.00    +0.034 C 
BRANCH  24  26
ATOM     26  OG1 THR A  10       4.801  58.341  36.350  0.00  0.00    -0.382 OA
ATOM     27  HG1 THR A  10       5.540  57.698  36.495  0.00  0.00    +0.210 HD
ENDBRANCH  24  26
ENDBRANCH  21  24
ENDBRANCH  19  21
ENDBRANCH  16  17
BRANCH  16  28
ATOM     28  CB  LEU A   9       8.171  56.535  40.516  0.00  0.00    +0.029 C 
BRANCH  28  29
ATOM     29  CG  LEU A   9       9.269  55.603  41.009  0.00  0.00    +0.002 C 
ATOM     30  CD2 LEU A   9       9.110  55.316  42.508  0.00  0.00    +0.000 C 
ATOM     31  CD1 LEU A   9      10.672  56.258  40.711  0.00  0.00    +0.000 C 
ENDBRANCH  28  29
ENDBRANCH  16  28
ENDBRANCH  14  16
ENDBRANCH  11  12
BRANCH  11  32
ATOM     32  CB  VAL A   8       6.595  51.653  38.581  0.00  0.00    +0.027 C 
ATOM     33  CG2 VAL A   8       6.116  51.184  39.934  0.00  0.00    +0.002 C 
ATOM     34  CG1 VAL A   8       6.331  50.480  37.567  0.00  0.00    +0.002 C 
ENDBRANCH  11  32
ENDBRANCH   8  11
ENDBRANCH   6   7
BRANCH   6  35
ATOM     35  CB  GLU A   7       5.807  54.020  33.867  0.00  0.00    +0.041 C 
BRANCH  35  36
ATOM     36  CG  GLU A   7       5.961  54.612  32.471  0.00  0.00    +0.116 C 
BRANCH  36  37
ATOM     37  CD  GLU A   7       5.774  53.600  31.365  0.00  0.00    +0.365 C 
ATOM     38  OE2 GLU A   7       5.982  52.385  31.610  0.00  0.00    -0.246 OA
ATOM     39  OE1 GLU A   7       5.444  54.045  30.251  0.00  0.00    -0.246 OA
ENDBRANCH  36  37
ENDBRANCH  35  36
ENDBRANCH   6  35
ENDBRANCH   4   6
ENDBRANCH   1   2
BRANCH   1  42
ATOM     40  C   VAL A   5      10.017  54.287  36.759  0.00  0.00    +0.241 C 
ATOM     41  O   VAL A   5       9.315  54.454  37.757  0.00  0.00    -0.273 OA
ATOM     42  N   GLY A   6      10.169  55.204  35.806  0.00  0.00    -0.295 N 
ATOM     43  H   GLY A   6      10.782  54.999  34.992  0.00  0.00    +0.150 HD
BRANCH  40  44
ATOM     44  CA  VAL A   5      10.763  52.971  36.539  0.00  0.00    +0.149 C 
BRANCH  44  47
ATOM     45  C   THR A   4       9.411  52.297  34.607  0.00  0.00    +0.243 C 
ATOM     46  O   THR A   4       8.373  52.347  35.293  0.00  0.00    -0.273 OA
ATOM     47  N   VAL A   5      10.610  52.589  35.125  0.00  0.00    -0.297 N 
ATOM     48  H   VAL A   5      11.452  52.545  34.516  0.00  0.00    +0.150 HD
BRANCH  45  49
ATOM     49  CA  THR A   4       9.359  51.908  33.096  0.00  0.00    +0.176 C 
BRANCH  49  52
ATOM     50  C   GLY A   3      10.178  54.059  32.242  0.00  0.00    +0.243 C 
ATOM     51  O   GLY A   3       9.291  54.691  32.835  0.00  0.00    -0.273 OA
ATOM     52  N   THR A   4      10.277  52.737  32.287  0.00  0.00    -0.295 N 
ATOM     53  H   THR A   4      11.024  52.269  31.736  0.00  0.00    +0.150 HD
BRANCH  50  54
ATOM     54  CA  GLY A   3      11.241  54.772  31.401  0.00  0.00    +0.176 C 
BRANCH  54  57
ATOM     55  C   ALA A   2      13.013  54.059  32.901  0.00  0.00    +0.241 C 
ATOM     56  O   ALA A   2      12.480  54.621  33.848  0.00  0.00    -0.273 OA
ATOM     57  N   GLY A   3      12.506  54.083  31.670  0.00  0.00    -0.295 N 
ATOM     58  H   GLY A   3      13.011  53.609  30.894  0.00  0.00    +0.150 HD
BRANCH  55  59
ATOM     59  CA  ALA A   2      14.313  53.272  33.132  0.00  0.00    +0.149 C 
ATOM     60  CB  ALA A   2      15.559  54.177  32.912  0.00  0.00    +0.031 C 
BRANCH  59  63
ATOM     61  C   VAL A   1      14.872  50.954  32.864  0.00  0.00    +0.238 C 
ATOM     62  O   VAL A   1      15.150  50.862  34.071  0.00  0.00    -0.274 OA
ATOM     63  N   ALA A   2      14.421  52.080  32.307  0.00  0.00    -0.297 N 
ATOM     64  H   ALA A   2      14.152  52.104  31.303  0.00  0.00    +0.150 HD
BRANCH  61  65
ATOM     65  CA  VAL A   1      15.030  49.755  31.973  0.00  0.00    +0.145 C 
BRANCH  65  66
ATOM     66  CB  VAL A   1      16.544  49.475  31.867  0.00  0.00    +0.025 C 
ATOM     67  CG2 VAL A   1      17.243  50.639  31.191  0.00  0.00    +0.002 C 
ATOM     68  CG1 VAL A   1      16.773  48.215  31.083  0.00  0.00    +0.002 C 
ENDBRANCH  65  66
BRANCH  65  69
ATOM     69  N   VAL A   1      14.420  49.845  30.653  0.00  0.00    -0.238 NA
ATOM     70  H   VAL A   1      14.926  50.291  29.861  0.00  0.00    +0.142 HD
ENDBRANCH  65  69
ENDBRANCH  61  65
ENDBRANCH  59  63
ENDBRANCH  55  59
ENDBRANCH  54  57
ENDBRANCH  50  54
ENDBRANCH  49  52
BRANCH  49  71
ATOM     71  CB  THR A   4       9.726  50.424  32.978  0.00  0.00    +0.137 C 
ATOM     72  CG2 THR A   4       9.489  49.910  31.539  0.00  0.00    +0.034 C 
BRANCH  71  73
ATOM     73  OG1 THR A   4      11.111  50.269  33.282  0.00  0.00    -0.382 OA
ATOM     74  HG1 THR A   4      11.359  49.313  33.209  0.00  0.00    +0.210 HD
ENDBRANCH  71  73
ENDBRANCH  49  71
ENDBRANCH  45  49
ENDBRANCH  44  47
BRANCH  44  75
ATOM     75  CB  VAL A   5      12.264  53.149  36.910  0.00  0.00    +0.027 C 
ATOM     76  CG2 VAL A   5      12.398  53.595  38.386  0.00  0.00    +0.002 C 
ATOM     77  CG1 VAL A   5      12.990  51.786  36.716  0.00  0.00    +0.002 C 
ENDBRANCH  44  75
ENDBRANCH  40  44
ENDBRANCH   1  42
TORSDOF 32
REMARK  Name = ../refined-set-2016/2zcr/2zcr_pocket.pdb
REMARK  293 active torsions:
REMARK  status: ('A' for Active; 'I' for Inactive)
REMARK    1  A    between atoms: _1  and  _3
REMARK    2  A    between atoms: _3  and  _4
REMARK    3  A    between atoms: _3  and  _6
REMARK    4  A    between atoms: _6  and  _7
REMARK    5  A    between atoms: _7  and  _8
REMARK    6  A    between atoms: _10  and  _12
REMARK    7  A    between atoms: _12  and  _13
REMARK    8  A    between atoms: _12  and  _15
REMARK    9  A    between atoms: _15  and  _16
REMARK   10  A    between atoms: _21  and  _23
REMARK   11  A    between atoms: _23  and  _24
REMARK   12  A    between atoms: _23  and  _26
REMARK   13  A    between atoms: _26  and  _27
REMARK   14  A    between atoms: _29  and  _31
REMARK   15  A    between atoms: _31  and  _32
REMARK   16  A    between atoms: _31  and  _34
REMARK   17  A    between atoms: _34  and  _35
REMARK   18  A    between atoms: _35  and  _36
REMARK   19  A    between atoms: _36  and  _37
REMARK   20  A    between atoms: _37  and  _38
REMARK   21  A    between atoms: _42  and  _44
REMARK   22  A    between atoms: _44  and  _45
REMARK   23  A    between atoms: _44  and  _47
REMARK   24  A    between atoms: _47  and  _48
REMARK   25  A    between atoms: _50  and  _52
REMARK   26  A    between atoms: _52  and  _53
REMARK   27  A    between atoms: _52  and  _55
REMARK   28  A    between atoms: _55  and  _56
REMARK   29  A    between atoms: _62  and  _64
REMARK   30  A    between atoms: _64  and  _65
REMARK   31  A    between atoms: _68  and  _70
REMARK   32  A    between atoms: _70  and  _71
REMARK   33  A    between atoms: _70  and  _73
REMARK   34  A    between atoms: _73  and  _74
REMARK   35  A    between atoms: _80  and  _82
REMARK   36  A    between atoms: _82  and  _83
REMARK   37  A    between atoms: _82  and  _85
REMARK   38  A    between atoms: _85  and  _86
REMARK   39  A    between atoms: _89  and  _91
REMARK   40  A    between atoms: _91  and  _92
REMARK   41  A    between atoms: _91  and  _94
REMARK   42  A    between atoms: _97  and  _99
REMARK   43  A    between atoms: _99  and  _100
REMARK   44  A    between atoms: _99  and  _102
REMARK   45  A    between atoms: _102  and  _103
REMARK   46  A    between atoms: _106  and  _108
REMARK   47  A    between atoms: _108  and  _109
REMARK   48  A    between atoms: _108  and  _111
REMARK   49  A    between atoms: _111  and  _112
REMARK   50  A    between atoms: _117  and  _118
REMARK   51  A    between atoms: _120  and  _122
REMARK   52  A    between atoms: _122  and  _123
REMARK   53  A    between atoms: _122  and  _125
REMARK   54  A    between atoms: _127  and  _129
REMARK   55  A    between atoms: _129  and  _130
REMARK   56  A    between atoms: _129  and  _132
REMARK   57  A    between atoms: _132  and  _133
REMARK   58  A    between atoms: _133  and  _134
REMARK   59  A    between atoms: _134  and  _135
REMARK   60  A    between atoms: _144  and  _146
REMARK   61  A    between atoms: _146  and  _147
REMARK   62  A    between atoms: _146  and  _149
REMARK   63  A    between atoms: _149  and  _150
REMARK   64  A    between atoms: _153  and  _155
REMARK   65  A    between atoms: _155  and  _156
REMARK   66  A    between atoms: _155  and  _158
REMARK   67  A    between atoms: _158  and  _159
REMARK   68  A    between atoms: _162  and  _164
REMARK   69  A    between atoms: _164  and  _165
REMARK   70  A    between atoms: _164  and  _167
REMARK   71  A    between atoms: _167  and  _168
REMARK   72  A    between atoms: _171  and  _173
REMARK   73  A    between atoms: _173  and  _174
REMARK   74  A    between atoms: _173  and  _176
REMARK   75  A    between atoms: _179  and  _181
REMARK   76  A    between atoms: _181  and  _182
REMARK   77  A    between atoms: _181  and  _184
REMARK   78  A    between atoms: _184  and  _185
REMARK   79  A    between atoms: _188  and  _190
REMARK   80  A    between atoms: _190  and  _191
REMARK   81  A    between atoms: _190  and  _193
REMARK   82  A    between atoms: _193  and  _194
REMARK   83  A    between atoms: _199  and  _200
REMARK   84  A    between atoms: _202  and  _204
REMARK   85  A    between atoms: _204  and  _205
REMARK   86  A    between atoms: _204  and  _207
REMARK   87  A    between atoms: _209  and  _211
REMARK   88  A    between atoms: _211  and  _212
REMARK   89  A    between atoms: _211  and  _214
REMARK   90  A    between atoms: _217  and  _219
REMARK   91  A    between atoms: _219  and  _220
REMARK   92  A    between atoms: _223  and  _225
REMARK   93  A    between atoms: _225  and  _226
REMARK   94  A    between atoms: _228  and  _230
REMARK   95  A    between atoms: _230  and  _231
REMARK   96  A    between atoms: _230  and  _233
REMARK   97  A    between atoms: _233  and  _234
REMARK   98  A    between atoms: _237  and  _239
REMARK   99  A    between atoms: _239  and  _240
REMARK  100  A    between atoms: _239  and  _242
REMARK  101  A    between atoms: _245  and  _247
REMARK  102  A    between atoms: _247  and  _248
REMARK  103  A    between atoms: _250  and  _252
REMARK  104  A    between atoms: _252  and  _253
REMARK  105  A    between atoms: _252  and  _255
REMARK  106  A    between atoms: _255  and  _256
REMARK  107  A    between atoms: _256  and  _257
REMARK  108  A    between atoms: _260  and  _262
REMARK  109  A    between atoms: _262  and  _263
REMARK  110  A    between atoms: _262  and  _265
REMARK  111  A    between atoms: _268  and  _270
REMARK  112  A    between atoms: _270  and  _271
REMARK  113  A    between atoms: _270  and  _273
REMARK  114  A    between atoms: _273  and  _274
REMARK  115  A    between atoms: _277  and  _279
REMARK  116  A    between atoms: _279  and  _280
REMARK  117  A    between atoms: _279  and  _282
REMARK  118  A    between atoms: _282  and  _283
REMARK  119  A    between atoms: _286  and  _288
REMARK  120  A    between atoms: _288  and  _289
REMARK  121  A    between atoms: _288  and  _291
REMARK  122  A    between atoms: _291  and  _292
REMARK  123  A    between atoms: _295  and  _297
REMARK  124  A    between atoms: _297  and  _298
REMARK  125  A    between atoms: _297  and  _300
REMARK  126  A    between atoms: _300  and  _301
REMARK  127  A    between atoms: _304  and  _306
REMARK  128  A    between atoms: _306  and  _307
REMARK  129  A    between atoms: _306  and  _309
REMARK  130  A    between atoms: _309  and  _310
REMARK  131  A    between atoms: _312  and  _314
REMARK  132  A    between atoms: _314  and  _315
REMARK  133  A    between atoms: _314  and  _317
REMARK  134  A    between atoms: _317  and  _318
REMARK  135  A    between atoms: _321  and  _323
REMARK  136  A    between atoms: _323  and  _324
REMARK  137  A    between atoms: _323  and  _326
REMARK  138  A    between atoms: _326  and  _327
REMARK  139  A    between atoms: _332  and  _333
REMARK  140  A    between atoms: _335  and  _337
REMARK  141  A    between atoms: _337  and  _338
REMARK  142  A    between atoms: _337  and  _340
REMARK  143  A    between atoms: _343  and  _345
REMARK  144  A    between atoms: _345  and  _346
REMARK  145  A    between atoms: _349  and  _351
REMARK  146  A    between atoms: _351  and  _352
REMARK  147  A    between atoms: _351  and  _354
REMARK  148  A    between atoms: _354  and  _355
REMARK  149  A    between atoms: _355  and  _356
REMARK  150  A    between atoms: _356  and  _357
REMARK  151  A    between atoms: _366  and  _368
REMARK  152  A    between atoms: _368  and  _369
REMARK  153  A    between atoms: _368  and  _371
REMARK  154  A    between atoms: _371  and  _372
REMARK  155  A    between atoms: _372  and  _373
REMARK  156  A    between atoms: _373  and  _374
REMARK  157  A    between atoms: _383  and  _385
REMARK  158  A    between atoms: _385  and  _386
REMARK  159  A    between atoms: _385  and  _388
REMARK  160  A    between atoms: _388  and  _389
REMARK  161  A    between atoms: _392  and  _394
REMARK  162  A    between atoms: _394  and  _395
REMARK  163  A    between atoms: _397  and  _399
REMARK  164  A    between atoms: _399  and  _400
REMARK  165  A    between atoms: _399  and  _402
REMARK  166  A    between atoms: _402  and  _403
REMARK  167  A    between atoms: _403  and  _404
REMARK  168  A    between atoms: _407  and  _409
REMARK  169  A    between atoms: _409  and  _410
REMARK  170  A    between atoms: _409  and  _412
REMARK  171  A    between atoms: _412  and  _413
REMARK  172  A    between atoms: _415  and  _417
REMARK  173  A    between atoms: _417  and  _418
REMARK  174  A    between atoms: _417  and  _420
REMARK  175  A    between atoms: _420  and  _421
REMARK  176  A    between atoms: _424  and  _426
REMARK  177  A    between atoms: _426  and  _427
REMARK  178  A    between atoms: _426  and  _429
REMARK  179  A    between atoms: _429  and  _430
REMARK  180  A    between atoms: _430  and  _431
REMARK  181  A    between atoms: _436  and  _438
REMARK  182  A    between atoms: _438  and  _439
REMARK  183  A    between atoms: _438  and  _441
REMARK  184  A    between atoms: _441  and  _442
REMARK  185  A    between atoms: _445  and  _447
REMARK  186  A    between atoms: _447  and  _448
REMARK  187  A    between atoms: _447  and  _450
REMARK  188  A    between atoms: _450  and  _451
REMARK  189  A    between atoms: _454  and  _456
REMARK  190  A    between atoms: _456  and  _457
REMARK  191  A    between atoms: _456  and  _459
REMARK  192  A    between atoms: _459  and  _460
REMARK  193  A    between atoms: _460  and  _461
REMARK  194  A    between atoms: _460  and  _462
REMARK  195  A    between atoms: _461  and  MG_705
REMARK  196  A    between atoms: _465  and  _467
REMARK  197  A    between atoms: _467  and  _468
REMARK  198  A    between atoms: _467  and  _470
REMARK  199  A    between atoms: _470  and  _471
REMARK  200  A    between atoms: _474  and  _476
REMARK  201  A    between atoms: _476  and  _477
REMARK  202  A    between atoms: _476  and  _479
REMARK  203  A    between atoms: _479  and  _480
REMARK  204  A    between atoms: _480  and  _481
REMARK  205  A    between atoms: _481  and  _482
REMARK  206  A    between atoms: _491  and  _493
REMARK  207  A    between atoms: _493  and  _494
REMARK  208  A    between atoms: _493  and  _496
REMARK  209  A    between atoms: _496  and  _497
REMARK  210  A    between atoms: _497  and  _499
REMARK  211  A    between atoms: _499  and  MG_705
REMARK  212  A    between atoms: _500  and  _502
REMARK  213  A    between atoms: _502  and  _503
REMARK  214  A    between atoms: _502  and  _505
REMARK  215  A    between atoms: _505  and  _506
REMARK  216  A    between atoms: _506  and  _507
REMARK  217  A    between atoms: _510  and  _512
REMARK  218  A    between atoms: _512  and  _513
REMARK  219  A    between atoms: _512  and  _515
REMARK  220  A    between atoms: _515  and  _516
REMARK  221  A    between atoms: _519  and  _521
REMARK  222  A    between atoms: _521  and  _522
REMARK  223  A    between atoms: _521  and  _524
REMARK  224  A    between atoms: _524  and  _525
REMARK  225  A    between atoms: _530  and  _532
REMARK  226  A    between atoms: _532  and  _533
REMARK  227  A    between atoms: _532  and  _535
REMARK  228  A    between atoms: _535  and  _536
REMARK  229  A    between atoms: _536  and  _537
REMARK  230  A    between atoms: _537  and  _538
REMARK  231  A    between atoms: _547  and  _549
REMARK  232  A    between atoms: _549  and  _550
REMARK  233  A    between atoms: _549  and  _552
REMARK  234  A    between atoms: _552  and  _553
REMARK  235  A    between atoms: _558  and  _559
REMARK  236  A    between atoms: _561  and  _563
REMARK  237  A    between atoms: _563  and  _564
REMARK  238  A    between atoms: _563  and  _566
REMARK  239  A    between atoms: _569  and  _571
REMARK  240  A    between atoms: _571  and  _572
REMARK  241  A    between atoms: _571  and  _574
REMARK  242  A    between atoms: _574  and  _575
REMARK  243  A    between atoms: _575  and  _576
REMARK  244  A    between atoms: _578  and  _580
REMARK  245  A    between atoms: _580  and  _581
REMARK  246  A    between atoms: _580  and  _583
REMARK  247  A    between atoms: _583  and  _584
REMARK  248  A    between atoms: _587  and  _589
REMARK  249  A    between atoms: _589  and  _590
REMARK  250  A    between atoms: _589  and  _592
REMARK  251  A    between atoms: _595  and  _597
REMARK  252  A    between atoms: _597  and  _598
REMARK  253  A    between atoms: _597  and  _600
REMARK  254  A    between atoms: _600  and  _601
REMARK  255  A    between atoms: _607  and  _609
REMARK  256  A    between atoms: _609  and  _610
REMARK  257  A    between atoms: _613  and  _615
REMARK  258  A    between atoms: _615  and  _616
REMARK  259  A    between atoms: _615  and  _618
REMARK  260  A    between atoms: _618  and  _619
REMARK  261  A    between atoms: _619  and  _620
REMARK  262  A    between atoms: _625  and  _627
REMARK  263  A    between atoms: _627  and  _628
REMARK  264  A    between atoms: _627  and  _630
REMARK  265  A    between atoms: _630  and  _631
REMARK  266  A    between atoms: _634  and  _636
REMARK  267  A    between atoms: _636  and  _637
REMARK  268  A    between atoms: _636  and  _639
REMARK  269  A    between atoms: _639  and  _640
REMARK  270  A    between atoms: _643  and  _645
REMARK  271  A    between atoms: _645  and  _646
REMARK  272  A    between atoms: _645  and  _648
REMARK  273  A    between atoms: _648  and  _649
REMARK  274  A    between atoms: _649  and  _650
REMARK  275  A    between atoms: _653  and  _655
REMARK  276  A    between atoms: _655  and  _656
REMARK  277  A    between atoms: _659  and  _661
REMARK  278  A    between atoms: _661  and  _662
REMARK  279  A    between atoms: _665  and  _667
REMARK  280  A    between atoms: _667  and  _668
REMARK  281  A    between atoms: _667  and  _670
REMARK  282  A    between atoms: _670  and  _671
REMARK  283  A    between atoms: _676  and  _677
REMARK  284  A    between atoms: _679  and  _681
REMARK  285  A    between atoms: _681  and  _682
REMARK  286  A    between atoms: _681  and  _684
REMARK  287  A    between atoms: _684  and  _685
REMARK  288  A    between atoms: _688  and  _690
REMARK  289  A    between atoms: _690  and  _691
REMARK  290  A    between atoms: _690  and  _693
REMARK  291  A    between atoms: _693  and  _694
REMARK  292  A    between atoms: _694  and  _695
REMARK  293  A    between atoms: _695  and  _696
REMARK                            x       y       z     vdW  Elec       q    Type
REMARK                         _______ _______ _______ _____ _____    ______ ____
ROOT
ATOM      1  CA  LEU A   2       4.696  61.552  42.855  0.00  0.00    +0.149 C 
ENDROOT
BRANCH   1   4
ATOM      2  C   ILE A   1       3.775  59.662  44.085  0.00  0.00    +0.238 C 
ATOM      3  O   ILE A   1       3.621  60.343  45.105  0.00  0.00    -0.274 OA
ATOM      4  N   LEU A   2       4.231  60.159  42.945  0.00  0.00    -0.297 N 
ATOM      5  H   LEU A   2       4.261  59.554  42.099  0.00  0.00    +0.150 HD
BRANCH   2   6
ATOM      6  CA  ILE A   1       3.448  58.167  44.083  0.00  0.00    +0.145 C 
BRANCH   6   7
ATOM      7  N   ILE A   1       2.962  57.763  42.778  0.00  0.00    -0.238 NA
ATOM      8  H   ILE A   1       3.580  57.236  42.128  0.00  0.00    +0.142 HD
ENDBRANCH   6   7
BRANCH   6   9
ATOM      9  CB  ILE A   1       4.776  57.437  44.434  0.00  0.00    +0.025 C 
ATOM     10  CG2 ILE A   1       5.215  57.804  45.821  0.00  0.00    +0.002 C 
BRANCH   9  11
ATOM     11  CG1 ILE A   1       4.603  55.915  44.240  0.00  0.00    +0.002 C 
ATOM     12  CD1 ILE A   1       3.545  55.317  45.097  0.00  0.00    +0.000 C 
ENDBRANCH   9  11
ENDBRANCH   6   9
ENDBRANCH   2   6
ENDBRANCH   1   4
BRANCH   1  13
ATOM     13  C   LEU A   2       3.727  62.567  42.266  0.00  0.00    +0.241 C 
ATOM     14  N   SER A   3       2.475  62.172  42.081  0.00  0.00    -0.296 N 
ATOM     15  H   SER A   3       2.189  61.211  42.358  0.00  0.00    +0.150 HD
ATOM     16  O   LEU A   2       4.116  63.711  42.004  0.00  0.00    -0.273 OA
BRANCH  14  17
ATOM     17  CA  SER A   3       1.499  63.076  41.492  0.00  0.00    +0.166 C 
BRANCH  17  18
ATOM     18  CB  SER A   3       0.137  62.849  42.121  0.00  0.00    +0.229 C 
ATOM     19  OG  SER A   3      -0.126  61.755  42.630  0.00  0.00    -0.286 OA
ENDBRANCH  17  18
BRANCH  17  20
ATOM     20  C   SER A   3       1.428  62.830  39.999  0.00  0.00    +0.165 C 
BRANCH  20  21
ATOM     21  O   SER A   3       1.018  61.500  39.764  0.00  0.00    -0.380 OA
ATOM     22  H   SER A   3       1.671  60.878  40.172  0.00  0.00    +0.211 HD
ENDBRANCH  20  21
ENDBRANCH  17  20
ENDBRANCH  14  17
ENDBRANCH   1  13
BRANCH   1  23
ATOM     23  CB  LEU A   2       6.002  61.576  42.056  0.00  0.00    +0.029 C 
BRANCH  23  24
ATOM     24  CG  LEU A   2       7.065  60.649  42.687  0.00  0.00    +0.002 C 
ATOM     25  CD2 LEU A   2       7.373  61.093  44.092  0.00  0.00    +0.000 C 
ATOM     26  CD1 LEU A   2       8.315  60.608  41.821  0.00  0.00    +0.000 C 
ENDBRANCH  23  24
ENDBRANCH   1  23
TORSDOF 12
REMARK  Name = ../refined-set-2016/2zcr/2zcr_pocket.pdb
REMARK  293 active torsions:
REMARK  status: ('A' for Active; 'I' for Inactive)
REMARK    1  A    between atoms: _1  and  _3
REMARK    2  A    between atoms: _3  and  _4
REMARK    3  A    between atoms: _3  and  _6
REMARK    4  A    between atoms: _6  and  _7
REMARK    5  A    between atoms: _7  and  _8
REMARK    6  A    between atoms: _10  and  _12
REMARK    7  A    between atoms: _12  and  _13
REMARK    8  A    between atoms: _12  and  _15
REMARK    9  A    between atoms: _15  and  _16
REMARK   10  A    between atoms: _21  and  _23
REMARK   11  A    between atoms: _23  and  _24
REMARK   12  A    between atoms: _23  and  _26
REMARK   13  A    between atoms: _26  and  _27
REMARK   14  A    between atoms: _29  and  _31
REMARK   15  A    between atoms: _31  and  _32
REMARK   16  A    between atoms: _31  and  _34
REMARK   17  A    between atoms: _34  and  _35
REMARK   18  A    between atoms: _35  and  _36
REMARK   19  A    between atoms: _36  and  _37
REMARK   20  A    between atoms: _37  and  _38
REMARK   21  A    between atoms: _42  and  _44
REMARK   22  A    between atoms: _44  and  _45
REMARK   23  A    between atoms: _44  and  _47
REMARK   24  A    between atoms: _47  and  _48
REMARK   25  A    between atoms: _50  and  _52
REMARK   26  A    between atoms: _52  and  _53
REMARK   27  A    between atoms: _52  and  _55
REMARK   28  A    between atoms: _55  and  _56
REMARK   29  A    between atoms: _62  and  _64
REMARK   30  A    between atoms: _64  and  _65
REMARK   31  A    between atoms: _68  and  _70
REMARK   32  A    between atoms: _70  and  _71
REMARK   33  A    between atoms: _70  and  _73
REMARK   34  A    between atoms: _73  and  _74
REMARK   35  A    between atoms: _80  and  _82
REMARK   36  A    between atoms: _82  and  _83
REMARK   37  A    between atoms: _82  and  _85
REMARK   38  A    between atoms: _85  and  _86
REMARK   39  A    between atoms: _89  and  _91
REMARK   40  A    between atoms: _91  and  _92
REMARK   41  A    between atoms: _91  and  _94
REMARK   42  A    between atoms: _97  and  _99
REMARK   43  A    between atoms: _99  and  _100
REMARK   44  A    between atoms: _99  and  _102
REMARK   45  A    between atoms: _102  and  _103
REMARK   46  A    between atoms: _106  and  _108
REMARK   47  A    between atoms: _108  and  _109
REMARK   48  A    between atoms: _108  and  _111
REMARK   49  A    between atoms: _111  and  _112
REMARK   50  A    between atoms: _117  and  _118
REMARK   51  A    between atoms: _120  and  _122
REMARK   52  A    between atoms: _122  and  _123
REMARK   53  A    between atoms: _122  and  _125
REMARK   54  A    between atoms: _127  and  _129
REMARK   55  A    between atoms: _129  and  _130
REMARK   56  A    between atoms: _129  and  _132
REMARK   57  A    between atoms: _132  and  _133
REMARK   58  A    between atoms: _133  and  _134
REMARK   59  A    between atoms: _134  and  _135
REMARK   60  A    between atoms: _144  and  _146
REMARK   61  A    between atoms: _146  and  _147
REMARK   62  A    between atoms: _146  and  _149
REMARK   63  A    between atoms: _149  and  _150
REMARK   64  A    between atoms: _153  and  _155
REMARK   65  A    between atoms: _155  and  _156
REMARK   66  A    between atoms: _155  and  _158
REMARK   67  A    between atoms: _158  and  _159
REMARK   68  A    between atoms: _162  and  _164
REMARK   69  A    between atoms: _164  and  _165
REMARK   70  A    between atoms: _164  and  _167
REMARK   71  A    between atoms: _167  and  _168
REMARK   72  A    between atoms: _171  and  _173
REMARK   73  A    between atoms: _173  and  _174
REMARK   74  A    between atoms: _173  and  _176
REMARK   75  A    between atoms: _179  and  _181
REMARK   76  A    between atoms: _181  and  _182
REMARK   77  A    between atoms: _181  and  _184
REMARK   78  A    between atoms: _184  and  _185
REMARK   79  A    between atoms: _188  and  _190
REMARK   80  A    between atoms: _190  and  _191
REMARK   81  A    between atoms: _190  and  _193
REMARK   82  A    between atoms: _193  and  _194
REMARK   83  A    between atoms: _199  and  _200
REMARK   84  A    between atoms: _202  and  _204
REMARK   85  A    between atoms: _204  and  _205
REMARK   86  A    between atoms: _204  and  _207
REMARK   87  A    between atoms: _209  and  _211
REMARK   88  A    between atoms: _211  and  _212
REMARK   89  A    between atoms: _211  and  _214
REMARK   90  A    between atoms: _217  and  _219
REMARK   91  A    between atoms: _219  and  _220
REMARK   92  A    between atoms: _223  and  _225
REMARK   93  A    between atoms: _225  and  _226
REMARK   94  A    between atoms: _228  and  _230
REMARK   95  A    between atoms: _230  and  _231
REMARK   96  A    between atoms: _230  and  _233
REMARK   97  A    between atoms: _233  and  _234
REMARK   98  A    between atoms: _237  and  _239
REMARK   99  A    between atoms: _239  and  _240
REMARK  100  A    between atoms: _239  and  _242
REMARK  101  A    between atoms: _245  and  _247
REMARK  102  A    between atoms: _247  and  _248
REMARK  103  A    between atoms: _250  and  _252
REMARK  104  A    between atoms: _252  and  _253
REMARK  105  A    between atoms: _252  and  _255
REMARK  106  A    between atoms: _255  and  _256
REMARK  107  A    between atoms: _256  and  _257
REMARK  108  A    between atoms: _260  and  _262
REMARK  109  A    between atoms: _262  and  _263
REMARK  110  A    between atoms: _262  and  _265
REMARK  111  A    between atoms: _268  and  _270
REMARK  112  A    between atoms: _270  and  _271
REMARK  113  A    between atoms: _270  and  _273
REMARK  114  A    between atoms: _273  and  _274
REMARK  115  A    between atoms: _277  and  _279
REMARK  116  A    between atoms: _279  and  _280
REMARK  117  A    between atoms: _279  and  _282
REMARK  118  A    between atoms: _282  and  _283
REMARK  119  A    between atoms: _286  and  _288
REMARK  120  A    between atoms: _288  and  _289
REMARK  121  A    between atoms: _288  and  _291
REMARK  122  A    between atoms: _291  and  _292
REMARK  123  A    between atoms: _295  and  _297
REMARK  124  A    between atoms: _297  and  _298
REMARK  125  A    between atoms: _297  and  _300
REMARK  126  A    between atoms: _300  and  _301
REMARK  127  A    between atoms: _304  and  _306
REMARK  128  A    between atoms: _306  and  _307
REMARK  129  A    between atoms: _306  and  _309
REMARK  130  A    between atoms: _309  and  _310
REMARK  131  A    between atoms: _312  and  _314
REMARK  132  A    between atoms: _314  and  _315
REMARK  133  A    between atoms: _314  and  _317
REMARK  134  A    between atoms: _317  and  _318
REMARK  135  A    between atoms: _321  and  _323
REMARK  136  A    between atoms: _323  and  _324
REMARK  137  A    between atoms: _323  and  _326
REMARK  138  A    between atoms: _326  and  _327
REMARK  139  A    between atoms: _332  and  _333
REMARK  140  A    between atoms: _335  and  _337
REMARK  141  A    between atoms: _337  and  _338
REMARK  142  A    between atoms: _337  and  _340
REMARK  143  A    between atoms: _343  and  _345
REMARK  144  A    between atoms: _345  and  _346
REMARK  145  A    between atoms: _349  and  _351
REMARK  146  A    between atoms: _351  and  _352
REMARK  147  A    between atoms: _351  and  _354
REMARK  148  A    between atoms: _354  and  _355
REMARK  149  A    between atoms: _355  and  _356
REMARK  150  A    between atoms: _356  and  _357
REMARK  151  A    between atoms: _366  and  _368
REMARK  152  A    between atoms: _368  and  _369
REMARK  153  A    between atoms: _368  and  _371
REMARK  154  A    between atoms: _371  and  _372
REMARK  155  A    between atoms: _372  and  _373
REMARK  156  A    between atoms: _373  and  _374
REMARK  157  A    between atoms: _383  and  _385
REMARK  158  A    between atoms: _385  and  _386
REMARK  159  A    between atoms: _385  and  _388
REMARK  160  A    between atoms: _388  and  _389
REMARK  161  A    between atoms: _392  and  _394
REMARK  162  A    between atoms: _394  and  _395
REMARK  163  A    between atoms: _397  and  _399
REMARK  164  A    between atoms: _399  and  _400
REMARK  165  A    between atoms: _399  and  _402
REMARK  166  A    between atoms: _402  and  _403
REMARK  167  A    between atoms: _403  and  _404
REMARK  168  A    between atoms: _407  and  _409
REMARK  169  A    between atoms: _409  and  _410
REMARK  170  A    between atoms: _409  and  _412
REMARK  171  A    between atoms: _412  and  _413
REMARK  172  A    between atoms: _415  and  _417
REMARK  173  A    between atoms: _417  and  _418
REMARK  174  A    between atoms: _417  and  _420
REMARK  175  A    between atoms: _420  and  _421
REMARK  176  A    between atoms: _424  and  _426
REMARK  177  A    between atoms: _426  and  _427
REMARK  178  A    between atoms: _426  and  _429
REMARK  179  A    between atoms: _429  and  _430
REMARK  180  A    between atoms: _430  and  _431
REMARK  181  A    between atoms: _436  and  _438
REMARK  182  A    between atoms: _438  and  _439
REMARK  183  A    between atoms: _438  and  _441
REMARK  184  A    between atoms: _441  and  _442
REMARK  185  A    between atoms: _445  and  _447
REMARK  186  A    between atoms: _447  and  _448
REMARK  187  A    between atoms: _447  and  _450
REMARK  188  A    between atoms: _450  and  _451
REMARK  189  A    between atoms: _454  and  _456
REMARK  190  A    between atoms: _456  and  _457
REMARK  191  A    between atoms: _456  and  _459
REMARK  192  A    between atoms: _459  and  _460
REMARK  193  A    between atoms: _460  and  _461
REMARK  194  A    between atoms: _460  and  _462
REMARK  195  A    between atoms: _461  and  MG_705
REMARK  196  A    between atoms: _465  and  _467
REMARK  197  A    between atoms: _467  and  _468
REMARK  198  A    between atoms: _467  and  _470
REMARK  199  A    between atoms: _470  and  _471
REMARK  200  A    between atoms: _474  and  _476
REMARK  201  A    between atoms: _476  and  _477
REMARK  202  A    between atoms: _476  and  _479
REMARK  203  A    between atoms: _479  and  _480
REMARK  204  A    between atoms: _480  and  _481
REMARK  205  A    between atoms: _481  and  _482
REMARK  206  A    between atoms: _491  and  _493
REMARK  207  A    between atoms: _493  and  _494
REMARK  208  A    between atoms: _493  and  _496
REMARK  209  A    between atoms: _496  and  _497
REMARK  210  A    between atoms: _497  and  _499
REMARK  211  A    between atoms: _499  and  MG_705
REMARK  212  A    between atoms: _500  and  _502
REMARK  213  A    between atoms: _502  and  _503
REMARK  214  A    between atoms: _502  and  _505
REMARK  215  A    between atoms: _505  and  _506
REMARK  216  A    between atoms: _506  and  _507
REMARK  217  A    between atoms: _510  and  _512
REMARK  218  A    between atoms: _512  and  _513
REMARK  219  A    between atoms: _512  and  _515
REMARK  220  A    between atoms: _515  and  _516
REMARK  221  A    between atoms: _519  and  _521
REMARK  222  A    between atoms: _521  and  _522
REMARK  223  A    between atoms: _521  and  _524
REMARK  224  A    between atoms: _524  and  _525
REMARK  225  A    between atoms: _530  and  _532
REMARK  226  A    between atoms: _532  and  _533
REMARK  227  A    between atoms: _532  and  _535
REMARK  228  A    between atoms: _535  and  _536
REMARK  229  A    between atoms: _536  and  _537
REMARK  230  A    between atoms: _537  and  _538
REMARK  231  A    between atoms: _547  and  _549
REMARK  232  A    between atoms: _549  and  _550
REMARK  233  A    between atoms: _549  and  _552
REMARK  234  A    between atoms: _552  and  _553
REMARK  235  A    between atoms: _558  and  _559
REMARK  236  A    between atoms: _561  and  _563
REMARK  237  A    between atoms: _563  and  _564
REMARK  238  A    between atoms: _563  and  _566
REMARK  239  A    between atoms: _569  and  _571
REMARK  240  A    between atoms: _571  and  _572
REMARK  241  A    between atoms: _571  and  _574
REMARK  242  A    between atoms: _574  and  _575
REMARK  243  A    between atoms: _575  and  _576
REMARK  244  A    between atoms: _578  and  _580
REMARK  245  A    between atoms: _580  and  _581
REMARK  246  A    between atoms: _580  and  _583
REMARK  247  A    between atoms: _583  and  _584
REMARK  248  A    between atoms: _587  and  _589
REMARK  249  A    between atoms: _589  and  _590
REMARK  250  A    between atoms: _589  and  _592
REMARK  251  A    between atoms: _595  and  _597
REMARK  252  A    between atoms: _597  and  _598
REMARK  253  A    between atoms: _597  and  _600
REMARK  254  A    between atoms: _600  and  _601
REMARK  255  A    between atoms: _607  and  _609
REMARK  256  A    between atoms: _609  and  _610
REMARK  257  A    between atoms: _613  and  _615
REMARK  258  A    between atoms: _615  and  _616
REMARK  259  A    between atoms: _615  and  _618
REMARK  260  A    between atoms: _618  and  _619
REMARK  261  A    between atoms: _619  and  _620
REMARK  262  A    between atoms: _625  and  _627
REMARK  263  A    between atoms: _627  and  _628
REMARK  264  A    between atoms: _627  and  _630
REMARK  265  A    between atoms: _630  and  _631
REMARK  266  A    between atoms: _634  and  _636
REMARK  267  A    between atoms: _636  and  _637
REMARK  268  A    between atoms: _636  and  _639
REMARK  269  A    between atoms: _639  and  _640
REMARK  270  A    between atoms: _643  and  _645
REMARK  271  A    between atoms: _645  and  _646
REMARK  272  A    between atoms: _645  and  _648
REMARK  273  A    between atoms: _648  and  _649
REMARK  274  A    between atoms: _649  and  _650
REMARK  275  A    between atoms: _653  and  _655
REMARK  276  A    between atoms: _655  and  _656
REMARK  277  A    between atoms: _659  and  _661
REMARK  278  A    between atoms: _661  and  _662
REMARK  279  A    between atoms: _665  and  _667
REMARK  280  A    between atoms: _667  and  _668
REMARK  281  A    between atoms: _667  and  _670
REMARK  282  A    between atoms: _670  and  _671
REMARK  283  A    between atoms: _676  and  _677
REMARK  284  A    between atoms: _679  and  _681
REMARK  285  A    between atoms: _681  and  _682
REMARK  286  A    between atoms: _681  and  _684
REMARK  287  A    between atoms: _684  and  _685
REMARK  288  A    between atoms: _688  and  _690
REMARK  289  A    between atoms: _690  and  _691
REMARK  290  A    between atoms: _690  and  _693
REMARK  291  A    between atoms: _693  and  _694
REMARK  292  A    between atoms: _694  and  _695
REMARK  293  A    between atoms: _695  and  _696
REMARK                            x       y       z     vdW  Elec       q    Type
REMARK                         _______ _______ _______ _____ _____    ______ ____
ROOT
ATOM      1  CA  TYR A   2       3.409  59.413  32.766  0.00  0.00    +0.141 C 
ENDROOT
BRANCH   1   4
ATOM      2  C   THR A   1       3.140  61.637  33.695  0.00  0.00    +0.241 C 
ATOM      3  O   THR A   1       4.316  61.691  34.033  0.00  0.00    -0.274 OA
ATOM      4  N   TYR A   2       2.592  60.571  33.115  0.00  0.00    -0.298 N 
ATOM      5  H   TYR A   2       1.573  60.563  32.909  0.00  0.00    +0.150 HD
BRANCH   2   6
ATOM      6  CA  THR A   1       2.208  62.795  33.974  0.00  0.00    +0.172 C 
BRANCH   6   7
ATOM      7  N   THR A   1       1.406  63.064  32.796  0.00  0.00    -0.236 NA
ATOM      8  H   THR A   1       0.371  62.980  32.847  0.00  0.00    +0.142 HD
ENDBRANCH   6   7
BRANCH   6   9
ATOM      9  CB  THR A   1       1.360  62.426  35.189  0.00  0.00    +0.135 C 
ATOM     10  CG2 THR A   1       2.203  62.596  36.455  0.00  0.00    +0.034 C 
BRANCH   9  11
ATOM     11  OG1 THR A   1       0.210  63.289  35.260  0.00  0.00    -0.383 OA
ATOM     12  HG1 THR A   1       0.509  64.229  35.342  0.00  0.00    +0.210 HD
ENDBRANCH   9  11
ENDBRANCH   6   9
ENDBRANCH   2   6
ENDBRANCH   1   4
BRANCH   1  13
ATOM     13  C   TYR A   2       4.451  59.770  31.700  0.00  0.00    +0.227 C 
ATOM     14  O   TYR A   2       5.606  59.342  31.785  0.00  0.00    -0.286 OA
ENDBRANCH   1  13
BRANCH   1  15
ATOM     15  CB  TYR A   2       2.514  58.281  32.257  0.00  0.00    +0.054 C 
BRANCH  15  16
ATOM     16  CG  TYR A   2       1.763  57.599  33.371  0.00  0.00    -0.020 A 
ATOM     17  CD2 TYR A   2       2.371  56.609  34.161  0.00  0.00    -0.001 A 
ATOM     18  CE2 TYR A   2       1.680  55.978  35.185  0.00  0.00    +0.036 A 
ATOM     19  CZ  TYR A   2       0.363  56.334  35.436  0.00  0.00    +0.134 A 
ATOM     20  CE1 TYR A   2      -0.254  57.310  34.678  0.00  0.00    +0.036 A 
ATOM     21  CD1 TYR A   2       0.446  57.937  33.646  0.00  0.00    -0.001 A 
BRANCH  19  22
ATOM     22  OH  TYR A   2      -0.350  55.701  36.430  0.00  0.00    -0.506 OA
ATOM     23  HH  TYR A   2       0.230  55.034  36.877  0.00  0.00    +0.292 HD
ENDBRANCH  19  22
ENDBRANCH  15  16
ENDBRANCH   1  15
TORSDOF 9
REMARK  Name = ../refined-set-2016/2zcr/2zcr_pocket.pdb
REMARK  293 active torsions:
REMARK  status: ('A' for Active; 'I' for Inactive)
REMARK    1  A    between atoms: _1  and  _3
REMARK    2  A    between atoms: _3  and  _4
REMARK    3  A    between atoms: _3  and  _6
REMARK    4  A    between atoms: _6  and  _7
REMARK    5  A    between atoms: _7  and  _8
REMARK    6  A    between atoms: _10  and  _12
REMARK    7  A    between atoms: _12  and  _13
REMARK    8  A    between atoms: _12  and  _15
REMARK    9  A    between atoms: _15  and  _16
REMARK   10  A    between atoms: _21  and  _23
REMARK   11  A    between atoms: _23  and  _24
REMARK   12  A    between atoms: _23  and  _26
REMARK   13  A    between atoms: _26  and  _27
REMARK   14  A    between atoms: _29  and  _31
REMARK   15  A    between atoms: _31  and  _32
REMARK   16  A    between atoms: _31  and  _34
REMARK   17  A    between atoms: _34  and  _35
REMARK   18  A    between atoms: _35  and  _36
REMARK   19  A    between atoms: _36  and  _37
REMARK   20  A    between atoms: _37  and  _38
REMARK   21  A    between atoms: _42  and  _44
REMARK   22  A    between atoms: _44  and  _45
REMARK   23  A    between atoms: _44  and  _47
REMARK   24  A    between atoms: _47  and  _48
REMARK   25  A    between atoms: _50  and  _52
REMARK   26  A    between atoms: _52  and  _53
REMARK   27  A    between atoms: _52  and  _55
REMARK   28  A    between atoms: _55  and  _56
REMARK   29  A    between atoms: _62  and  _64
REMARK   30  A    between atoms: _64  and  _65
REMARK   31  A    between atoms: _68  and  _70
REMARK   32  A    between atoms: _70  and  _71
REMARK   33  A    between atoms: _70  and  _73
REMARK   34  A    between atoms: _73  and  _74
REMARK   35  A    between atoms: _80  and  _82
REMARK   36  A    between atoms: _82  and  _83
REMARK   37  A    between atoms: _82  and  _85
REMARK   38  A    between atoms: _85  and  _86
REMARK   39  A    between atoms: _89  and  _91
REMARK   40  A    between atoms: _91  and  _92
REMARK   41  A    between atoms: _91  and  _94
REMARK   42  A    between atoms: _97  and  _99
REMARK   43  A    between atoms: _99  and  _100
REMARK   44  A    between atoms: _99  and  _102
REMARK   45  A    between atoms: _102  and  _103
REMARK   46  A    between atoms: _106  and  _108
REMARK   47  A    between atoms: _108  and  _109
REMARK   48  A    between atoms: _108  and  _111
REMARK   49  A    between atoms: _111  and  _112
REMARK   50  A    between atoms: _117  and  _118
REMARK   51  A    between atoms: _120  and  _122
REMARK   52  A    between atoms: _122  and  _123
REMARK   53  A    between atoms: _122  and  _125
REMARK   54  A    between atoms: _127  and  _129
REMARK   55  A    between atoms: _129  and  _130
REMARK   56  A    between atoms: _129  and  _132
REMARK   57  A    between atoms: _132  and  _133
REMARK   58  A    between atoms: _133  and  _134
REMARK   59  A    between atoms: _134  and  _135
REMARK   60  A    between atoms: _144  and  _146
REMARK   61  A    between atoms: _146  and  _147
REMARK   62  A    between atoms: _146  and  _149
REMARK   63  A    between atoms: _149  and  _150
REMARK   64  A    between atoms: _153  and  _155
REMARK   65  A    between atoms: _155  and  _156
REMARK   66  A    between atoms: _155  and  _158
REMARK   67  A    between atoms: _158  and  _159
REMARK   68  A    between atoms: _162  and  _164
REMARK   69  A    between atoms: _164  and  _165
REMARK   70  A    between atoms: _164  and  _167
REMARK   71  A    between atoms: _167  and  _168
REMARK   72  A    between atoms: _171  and  _173
REMARK   73  A    between atoms: _173  and  _174
REMARK   74  A    between atoms: _173  and  _176
REMARK   75  A    between atoms: _179  and  _181
REMARK   76  A    between atoms: _181  and  _182
REMARK   77  A    between atoms: _181  and  _184
REMARK   78  A    between atoms: _184  and  _185
REMARK   79  A    between atoms: _188  and  _190
REMARK   80  A    between atoms: _190  and  _191
REMARK   81  A    between atoms: _190  and  _193
REMARK   82  A    between atoms: _193  and  _194
REMARK   83  A    between atoms: _199  and  _200
REMARK   84  A    between atoms: _202  and  _204
REMARK   85  A    between atoms: _204  and  _205
REMARK   86  A    between atoms: _204  and  _207
REMARK   87  A    between atoms: _209  and  _211
REMARK   88  A    between atoms: _211  and  _212
REMARK   89  A    between atoms: _211  and  _214
REMARK   90  A    between atoms: _217  and  _219
REMARK   91  A    between atoms: _219  and  _220
REMARK   92  A    between atoms: _223  and  _225
REMARK   93  A    between atoms: _225  and  _226
REMARK   94  A    between atoms: _228  and  _230
REMARK   95  A    between atoms: _230  and  _231
REMARK   96  A    between atoms: _230  and  _233
REMARK   97  A    between atoms: _233  and  _234
REMARK   98  A    between atoms: _237  and  _239
REMARK   99  A    between atoms: _239  and  _240
REMARK  100  A    between atoms: _239  and  _242
REMARK  101  A    between atoms: _245  and  _247
REMARK  102  A    between atoms: _247  and  _248
REMARK  103  A    between atoms: _250  and  _252
REMARK  104  A    between atoms: _252  and  _253
REMARK  105  A    between atoms: _252  and  _255
REMARK  106  A    between atoms: _255  and  _256
REMARK  107  A    between atoms: _256  and  _257
REMARK  108  A    between atoms: _260  and  _262
REMARK  109  A    between atoms: _262  and  _263
REMARK  110  A    between atoms: _262  and  _265
REMARK  111  A    between atoms: _268  and  _270
REMARK  112  A    between atoms: _270  and  _271
REMARK  113  A    between atoms: _270  and  _273
REMARK  114  A    between atoms: _273  and  _274
REMARK  115  A    between atoms: _277  and  _279
REMARK  116  A    between atoms: _279  and  _280
REMARK  117  A    between atoms: _279  and  _282
REMARK  118  A    between atoms: _282  and  _283
REMARK  119  A    between atoms: _286  and  _288
REMARK  120  A    between atoms: _288  and  _289
REMARK  121  A    between atoms: _288  and  _291
REMARK  122  A    between atoms: _291  and  _292
REMARK  123  A    between atoms: _295  and  _297
REMARK  124  A    between atoms: _297  and  _298
REMARK  125  A    between atoms: _297  and  _300
REMARK  126  A    between atoms: _300  and  _301
REMARK  127  A    between atoms: _304  and  _306
REMARK  128  A    between atoms: _306  and  _307
REMARK  129  A    between atoms: _306  and  _309
REMARK  130  A    between atoms: _309  and  _310
REMARK  131  A    between atoms: _312  and  _314
REMARK  132  A    between atoms: _314  and  _315
REMARK  133  A    between atoms: _314  and  _317
REMARK  134  A    between atoms: _317  and  _318
REMARK  135  A    between atoms: _321  and  _323
REMARK  136  A    between atoms: _323  and  _324
REMARK  137  A    between atoms: _323  and  _326
REMARK  138  A    between atoms: _326  and  _327
REMARK  139  A    between atoms: _332  and  _333
REMARK  140  A    between atoms: _335  and  _337
REMARK  141  A    between atoms: _337  and  _338
REMARK  142  A    between atoms: _337  and  _340
REMARK  143  A    between atoms: _343  and  _345
REMARK  144  A    between atoms: _345  and  _346
REMARK  145  A    between atoms: _349  and  _351
REMARK  146  A    between atoms: _351  and  _352
REMARK  147  A    between atoms: _351  and  _354
REMARK  148  A    between atoms: _354  and  _355
REMARK  149  A    between atoms: _355  and  _356
REMARK  150  A    between atoms: _356  and  _357
REMARK  151  A    between atoms: _366  and  _368
REMARK  152  A    between atoms: _368  and  _369
REMARK  153  A    between atoms: _368  and  _371
REMARK  154  A    between atoms: _371  and  _372
REMARK  155  A    between atoms: _372  and  _373
REMARK  156  A    between atoms: _373  and  _374
REMARK  157  A    between atoms: _383  and  _385
REMARK  158  A    between atoms: _385  and  _386
REMARK  159  A    between atoms: _385  and  _388
REMARK  160  A    between atoms: _388  and  _389
REMARK  161  A    between atoms: _392  and  _394
REMARK  162  A    between atoms: _394  and  _395
REMARK  163  A    between atoms: _397  and  _399
REMARK  164  A    between atoms: _399  and  _400
REMARK  165  A    between atoms: _399  and  _402
REMARK  166  A    between atoms: _402  and  _403
REMARK  167  A    between atoms: _403  and  _404
REMARK  168  A    between atoms: _407  and  _409
REMARK  169  A    between atoms: _409  and  _410
REMARK  170  A    between atoms: _409  and  _412
REMARK  171  A    between atoms: _412  and  _413
REMARK  172  A    between atoms: _415  and  _417
REMARK  173  A    between atoms: _417  and  _418
REMARK  174  A    between atoms: _417  and  _420
REMARK  175  A    between atoms: _420  and  _421
REMARK  176  A    between atoms: _424  and  _426
REMARK  177  A    between atoms: _426  and  _427
REMARK  178  A    between atoms: _426  and  _429
REMARK  179  A    between atoms: _429  and  _430
REMARK  180  A    between atoms: _430  and  _431
REMARK  181  A    between atoms: _436  and  _438
REMARK  182  A    between atoms: _438  and  _439
REMARK  183  A    between atoms: _438  and  _441
REMARK  184  A    between atoms: _441  and  _442
REMARK  185  A    between atoms: _445  and  _447
REMARK  186  A    between atoms: _447  and  _448
REMARK  187  A    between atoms: _447  and  _450
REMARK  188  A    between atoms: _450  and  _451
REMARK  189  A    between atoms: _454  and  _456
REMARK  190  A    between atoms: _456  and  _457
REMARK  191  A    between atoms: _456  and  _459
REMARK  192  A    between atoms: _459  and  _460
REMARK  193  A    between atoms: _460  and  _461
REMARK  194  A    between atoms: _460  and  _462
REMARK  195  A    between atoms: _461  and  MG_705
REMARK  196  A    between atoms: _465  and  _467
REMARK  197  A    between atoms: _467  and  _468
REMARK  198  A    between atoms: _467  and  _470
REMARK  199  A    between atoms: _470  and  _471
REMARK  200  A    between atoms: _474  and  _476
REMARK  201  A    between atoms: _476  and  _477
REMARK  202  A    between atoms: _476  and  _479
REMARK  203  A    between atoms: _479  and  _480
REMARK  204  A    between atoms: _480  and  _481
REMARK  205  A    between atoms: _481  and  _482
REMARK  206  A    between atoms: _491  and  _493
REMARK  207  A    between atoms: _493  and  _494
REMARK  208  A    between atoms: _493  and  _496
REMARK  209  A    between atoms: _496  and  _497
REMARK  210  A    between atoms: _497  and  _499
REMARK  211  A    between atoms: _499  and  MG_705
REMARK  212  A    between atoms: _500  and  _502
REMARK  213  A    between atoms: _502  and  _503
REMARK  214  A    between atoms: _502  and  _505
REMARK  215  A    between atoms: _505  and  _506
REMARK  216  A    between atoms: _506  and  _507
REMARK  217  A    between atoms: _510  and  _512
REMARK  218  A    between atoms: _512  and  _513
REMARK  219  A    between atoms: _512  and  _515
REMARK  220  A    between atoms: _515  and  _516
REMARK  221  A    between atoms: _519  and  _521
REMARK  222  A    between atoms: _521  and  _522
REMARK  223  A    between atoms: _521  and  _524
REMARK  224  A    between atoms: _524  and  _525
REMARK  225  A    between atoms: _530  and  _532
REMARK  226  A    between atoms: _532  and  _533
REMARK  227  A    between atoms: _532  and  _535
REMARK  228  A    between atoms: _535  and  _536
REMARK  229  A    between atoms: _536  and  _537
REMARK  230  A    between atoms: _537  and  _538
REMARK  231  A    between atoms: _547  and  _549
REMARK  232  A    between atoms: _549  and  _550
REMARK  233  A    between atoms: _549  and  _552
REMARK  234  A    between atoms: _552  and  _553
REMARK  235  A    between atoms: _558  and  _559
REMARK  236  A    between atoms: _561  and  _563
REMARK  237  A    between atoms: _563  and  _564
REMARK  238  A    between atoms: _563  and  _566
REMARK  239  A    between atoms: _569  and  _571
REMARK  240  A    between atoms: _571  and  _572
REMARK  241  A    between atoms: _571  and  _574
REMARK  242  A    between atoms: _574  and  _575
REMARK  243  A    between atoms: _575  and  _576
REMARK  244  A    between atoms: _578  and  _580
REMARK  245  A    between atoms: _580  and  _581
REMARK  246  A    between atoms: _580  and  _583
REMARK  247  A    between atoms: _583  and  _584
REMARK  248  A    between atoms: _587  and  _589
REMARK  249  A    between atoms: _589  and  _590
REMARK  250  A    between atoms: _589  and  _592
REMARK  251  A    between atoms: _595  and  _597
REMARK  252  A    between atoms: _597  and  _598
REMARK  253  A    between atoms: _597  and  _600
REMARK  254  A    between atoms: _600  and  _601
REMARK  255  A    between atoms: _607  and  _609
REMARK  256  A    between atoms: _609  and  _610
REMARK  257  A    between atoms: _613  and  _615
REMARK  258  A    between atoms: _615  and  _616
REMARK  259  A    between atoms: _615  and  _618
REMARK  260  A    between atoms: _618  and  _619
REMARK  261  A    between atoms: _619  and  _620
REMARK  262  A    between atoms: _625  and  _627
REMARK  263  A    between atoms: _627  and  _628
REMARK  264  A    between atoms: _627  and  _630
REMARK  265  A    between atoms: _630  and  _631
REMARK  266  A    between atoms: _634  and  _636
REMARK  267  A    between atoms: _636  and  _637
REMARK  268  A    between atoms: _636  and  _639
REMARK  269  A    between atoms: _639  and  _640
REMARK  270  A    between atoms: _643  and  _645
REMARK  271  A    between atoms: _645  and  _646
REMARK  272  A    between atoms: _645  and  _648
REMARK  273  A    between atoms: _648  and  _649
REMARK  274  A    between atoms: _649  and  _650
REMARK  275  A    between atoms: _653  and  _655
REMARK  276  A    between atoms: _655  and  _656
REMARK  277  A    between atoms: _659  and  _661
REMARK  278  A    between atoms: _661  and  _662
REMARK  279  A    between atoms: _665  and  _667
REMARK  280  A    between atoms: _667  and  _668
REMARK  281  A    between atoms: _667  and  _670
REMARK  282  A    between atoms: _670  and  _671
REMARK  283  A    between atoms: _676  and  _677
REMARK  284  A    between atoms: _679  and  _681
REMARK  285  A    between atoms: _681  and  _682
REMARK  286  A    between atoms: _681  and  _684
REMARK  287  A    between atoms: _684  and  _685
REMARK  288  A    between atoms: _688  and  _690
REMARK  289  A    between atoms: _690  and  _691
REMARK  290  A    between atoms: _690  and  _693
REMARK  291  A    between atoms: _693  and  _694
REMARK  292  A    between atoms: _694  and  _695
REMARK  293  A    between atoms: _695  and  _696
REMARK                            x       y       z     vdW  Elec       q    Type
REMARK                         _______ _______ _______ _____ _____    ______ ____
ROOT
ATOM      1  CA  LEU A   9      18.537  59.557  33.512  0.00  0.00    +0.000 C 
ENDROOT
BRANCH   1   3
ATOM      2  C   SER A   8      18.123  60.366  31.262  0.00  0.00    +0.000 C 
ATOM      3  N   LEU A   9      17.654  59.957  32.430  0.00  0.00    +0.000 N 
ATOM      4  H   LEU A   9      16.625  59.921  32.577  0.00  0.00    +0.000 HD
ATOM      5  O   SER A   8      19.313  60.458  31.012  0.00  0.00    +0.000 OA
BRANCH   2   6
ATOM      6  CA  SER A   8      17.101  60.731  30.220  0.00  0.00    +0.000 C 
BRANCH   6   8
ATOM      7  C   GLU A   7      16.158  58.527  29.904  0.00  0.00    +0.000 C 
ATOM      8  N   SER A   8      15.984  59.787  30.258  0.00  0.00    +0.000 N 
ATOM      9  H   SER A   8      15.045  60.111  30.566  0.00  0.00    +0.000 HD
ATOM     10  O   GLU A   7      17.229  58.106  29.477  0.00  0.00    +0.000 OA
BRANCH   7  11
ATOM     11  CA  GLU A   7      14.938  57.618  30.032  0.00  0.00    +0.000 C 
BRANCH  11  14
ATOM     12  C   GLY A   6      14.598  57.815  32.393  0.00  0.00    +0.000 C 
ATOM     13  O   GLY A   6      15.742  57.383  32.590  0.00  0.00    +0.000 OA
ATOM     14  N   GLU A   7      14.123  58.001  31.177  0.00  0.00    +0.000 N 
ATOM     15  H   GLU A   7      13.179  58.415  31.037  0.00  0.00    +0.000 HD
BRANCH  12  16
ATOM     16  CA  GLY A   6      13.664  58.174  33.537  0.00  0.00    +0.000 C 
BRANCH  16  18
ATOM     17  C   LEU A   5      13.646  60.527  33.008  0.00  0.00    +0.000 C 
ATOM     18  N   GLY A   6      12.949  59.411  33.267  0.00  0.00    +0.000 N 
ATOM     19  H   GLY A   6      11.909  59.430  33.275  0.00  0.00    +0.000 HD
ATOM     20  O   LEU A   5      14.865  60.538  32.977  0.00  0.00    +0.000 OA
BRANCH  17  21
ATOM     21  CA  LEU A   5      12.874  61.812  32.714  0.00  0.00    +0.000 C 
BRANCH  21  23
ATOM     22  C   ARG A   4      12.165  61.153  30.510  0.00  0.00    +0.000 C 
ATOM     23  N   LEU A   5      11.826  61.510  31.749  0.00  0.00    +0.000 N 
ATOM     24  H   LEU A   5      10.825  61.572  32.023  0.00  0.00    +0.000 HD
ATOM     25  O   ARG A   4      13.350  61.083  30.128  0.00  0.00    +0.000 OA
BRANCH  22  26
ATOM     26  CA  ARG A   4      11.027  60.820  29.560  0.00  0.00    +0.000 C 
BRANCH  26  29
ATOM     27  C   ARG A   3      10.130  58.917  30.745  0.00  0.00    +0.000 C 
ATOM     28  O   ARG A   3      11.223  58.373  30.730  0.00  0.00    +0.000 OA
ATOM     29  N   ARG A   4       9.942  60.112  30.225  0.00  0.00    +0.000 N 
ATOM     30  H   ARG A   4       9.004  60.557  30.290  0.00  0.00    +0.000 HD
BRANCH  27  31
ATOM     31  CA  ARG A   3       8.897  58.254  31.408  0.00  0.00    +0.000 C 
BRANCH  31  34
ATOM     32  C   UNK A   2       8.885  59.723  33.358  0.00  0.00    +0.000 C 
ATOM     33  O   UNK A   2      10.043  59.375  33.661  0.00  0.00    +0.000 OA
ATOM     34  N   ARG A   3       8.254  59.231  32.301  0.00  0.00    +0.000 N 
ATOM     35  H   ARG A   3       7.283  59.543  32.098  0.00  0.00    +0.000 HD
BRANCH  32  36
ATOM     36  C   UNK A   2       8.097  60.733  34.209  0.00  0.00    +0.000 C 
ATOM     37  C   UNK A   2       7.132  59.990  35.183  0.00  0.00    +0.000 C 
BRANCH  36  39
ATOM     38  C   ARG A   1       7.925  62.483  32.539  0.00  0.00    +0.000 C 
ATOM     39  N   UNK A   2       7.322  61.643  33.371  0.00  0.00    +0.000 N 
ATOM     40  H   UNK A   2       6.284  61.633  33.427  0.00  0.00    +0.000 HD
ATOM     41  O   ARG A   1       9.152  62.554  32.441  0.00  0.00    +0.000 OA
BRANCH  38  42
ATOM     42  CA  ARG A   1       7.021  63.381  31.676  0.00  0.00    +0.000 C 
BRANCH  42  43
ATOM     43  CB  ARG A   1       6.491  64.546  32.496  0.00  0.00    +0.000 C 
ATOM     44  CG2 ARG A   1       7.650  65.190  33.300  0.00  0.00    +0.000 C 
ATOM     45  CG1 ARG A   1       5.889  65.618  31.527  0.00  0.00    +0.000 C 
ENDBRANCH  42  43
BRANCH  42  46
ATOM     46  N   ARG A   1       5.930  62.616  31.085  0.00  0.00    +0.000 NA
ATOM     47  H   ARG A   1       4.948  62.822  31.360  0.00  0.00    +0.000 HD
ENDBRANCH  42  46
ENDBRANCH  38  42
ENDBRANCH  36  39
ENDBRANCH  32  36
ENDBRANCH  31  34
BRANCH  31  48
ATOM     48  CB  ARG A   3       7.895  57.810  30.330  0.00  0.00    +0.000 C 
BRANCH  48  49
ATOM     49  CG  ARG A   3       8.382  56.734  29.391  0.00  0.00    +0.000 C 
BRANCH  49  50
ATOM     50  CD  ARG A   3       7.369  56.531  28.238  0.00  0.00    +0.000 C 
BRANCH  50  51
ATOM     51  NE  ARG A   3       6.066  56.236  28.817  0.00  0.00    +0.330 N 
ATOM     52  HE  ARG A   3       5.984  55.380  29.401  0.00  0.00    +0.000 HD
ATOM     53  CZ  ARG A   3       4.974  56.974  28.658  0.00  0.00    +0.000 C 
ATOM     54  NH2 ARG A   3       3.846  56.594  29.234  0.00  0.00    +0.330 N 
ATOM     55 HH21 ARG A   3       3.821  55.725  29.805  0.00  0.00    +0.000 HD
ATOM     56 HH22 ARG A   3       2.984  57.164  29.116  0.00  0.00    +0.000 HD
ATOM     57  NH1 ARG A   3       5.009  58.076  27.922  0.00  0.00    +0.330 N 
ATOM     58 HH11 ARG A   3       4.149  58.649  27.802  0.00  0.00    +0.000 HD
ATOM     59 HH12 ARG A   3       5.896  58.368  27.464  0.00  0.00    +0.000 HD
ENDBRANCH  50  51
ENDBRANCH  49  50
ENDBRANCH  48  49
ENDBRANCH  31  48
ENDBRANCH  27  31
ENDBRANCH  26  29
BRANCH  26  60
ATOM     60  CB  ARG A   4      10.492  62.105  28.906  0.00  0.00    +0.000 C 
BRANCH  60  61
ATOM     61  CG  ARG A   4      11.637  62.996  28.383  0.00  0.00    +0.000 C 
BRANCH  61  62
ATOM     62  CD  ARG A   4      11.119  64.219  27.584  0.00  0.00    +0.000 C 
BRANCH  62  63
ATOM     63  NE  ARG A   4      10.091  63.792  26.636  0.00  0.00    +0.330 N 
ATOM     64  CZ  ARG A   4       8.785  63.995  26.790  0.00  0.00    +0.000 C 
ATOM     65  NH2 ARG A   4       8.311  64.643  27.850  0.00  0.00    +0.330 N 
ATOM     66 HH21 ARG A   4       8.964  65.001  28.576  0.00  0.00    +0.000 HD
ATOM     67 HH22 ARG A   4       7.287  64.792  27.953  0.00  0.00    +0.000 HD
ATOM     68  NH1 ARG A   4       7.941  63.529  25.875  0.00  0.00    +0.330 N 
ATOM     69 HH11 ARG A   4       6.918  63.682  25.985  0.00  0.00    +0.000 HD
ATOM     70 HH12 ARG A   4       8.303  63.012  25.049  0.00  0.00    +0.000 HD
ATOM     71  HE  ARG A   4      10.403  63.293  25.779  0.00  0.00    +0.000 HD
ENDBRANCH  62  63
ENDBRANCH  61  62
ENDBRANCH  60  61
ENDBRANCH  26  60
ENDBRANCH  22  26
ENDBRANCH  21  23
BRANCH  21  72
ATOM     72  CB  LEU A   5      12.309  62.413  33.997  0.00  0.00    +0.000 C 
BRANCH  72  73
ATOM     73  CG  LEU A   5      13.386  62.625  35.092  0.00  0.00    +0.000 C 
ATOM     74  CD2 LEU A   5      12.769  63.195  36.362  0.00  0.00    +0.000 C 
ATOM     75  CD1 LEU A   5      14.489  63.575  34.539  0.00  0.00    +0.000 C 
ENDBRANCH  72  73
ENDBRANCH  21  72
ENDBRANCH  17  21
ENDBRANCH  16  18
ENDBRANCH  12  16
ENDBRANCH  11  14
BRANCH  11  76
ATOM     76  CB  GLU A   7      14.087  57.654  28.752  0.00  0.00    +0.000 C 
BRANCH  76  77
ATOM     77  CG  GLU A   7      12.948  56.644  28.771  0.00  0.00    +0.000 C 
BRANCH  77  78
ATOM     78  CD  GLU A   7      12.211  56.584  27.444  0.00  0.00    +0.000 C 
ATOM     79  OE2 GLU A   7      11.079  56.071  27.425  0.00  0.00    +0.000 OA
ATOM     80  OE1 GLU A   7      12.767  57.039  26.424  0.00  0.00    +0.000 OA
ENDBRANCH  77  78
ENDBRANCH  76  77
ENDBRANCH  11  76
ENDBRANCH   7  11
ENDBRANCH   6   8
BRANCH   6  81
ATOM     81  CB  SER A   8      16.601  62.148  30.476  0.00  0.00    +0.000 C 
BRANCH  81  82
ATOM     82  OG  SER A   8      15.765  62.449  29.374  0.00  0.00    +0.000 OA
ATOM     83  H   SER A   8      15.019  61.799  29.340  0.00  0.00    +0.000 HD
ENDBRANCH  81  82
ENDBRANCH   6  81
ENDBRANCH   2   6
ENDBRANCH   1   3
BRANCH   1  84
ATOM     84  C   LEU A   9      19.367  58.346  33.082  0.00  0.00    +0.000 C 
ATOM     85  O   LEU A   9      20.586  58.269  33.389  0.00  0.00    +0.000 OA
ATOM     86  N   GLN A  10      18.719  57.397  32.397  0.00  0.00    +0.000 N 
ATOM     87  H   GLN A  10      17.702  57.510  32.211  0.00  0.00    +0.000 HD
BRANCH  86  88
ATOM     88  CA  GLN A  10      19.412  56.196  31.900  0.00  0.00    +0.000 C 
BRANCH  88  89
ATOM     89  C   GLN A  10      20.497  56.600  30.883  0.00  0.00    +0.000 C 
ATOM     90  O   GLN A  10      21.595  56.055  30.912  0.00  0.00    +0.000 OA
ATOM     91  N   LEU A  11      20.197  57.555  29.998  0.00  0.00    +0.000 N 
ATOM     92  H   LEU A  11      19.254  57.993  30.016  0.00  0.00    +0.000 HD
BRANCH  91  93
ATOM     93  CA  LEU A  11      21.180  57.994  29.002  0.00  0.00    +0.000 C 
BRANCH  93  94
ATOM     94  C   LEU A  11      22.374  58.675  29.696  0.00  0.00    +0.000 C 
ATOM     95  N   ILE A  12      22.115  59.465  30.739  0.00  0.00    +0.000 N 
ATOM     96  H   ILE A  12      21.128  59.646  31.014  0.00  0.00    +0.000 HD
ATOM     97  O   LEU A  11      23.517  58.476  29.287  0.00  0.00    +0.000 OA
BRANCH  95  98
ATOM     98  CA  ILE A  12      23.208  60.084  31.505  0.00  0.00    +0.000 C 
BRANCH  98  99
ATOM     99  C   ILE A  12      24.018  58.941  32.163  0.00  0.00    +0.000 C 
ATOM    100  N   UNK A  13      23.336  57.928  32.694  0.00  0.00    +0.000 N 
ATOM    101  H   UNK A  13      22.296  57.929  32.668  0.00  0.00    +0.000 HD
ATOM    102  O   ILE A  12      25.251  58.967  32.192  0.00  0.00    +0.000 OA
BRANCH 100 103
ATOM    103  C   UNK A  13      24.054  56.812  33.315  0.00  0.00    +0.000 C 
BRANCH 103 104
ATOM    104  C   UNK A  13      24.976  56.170  32.274  0.00  0.00    +0.000 C 
ATOM    105  O   UNK A  13      26.141  55.931  32.535  0.00  0.00    +0.000 OA
ATOM    106  N   ILE A  14      24.462  55.930  31.080  0.00  0.00    +0.000 N 
ATOM    107  H   ILE A  14      23.471  56.188  30.896  0.00  0.00    +0.000 HD
BRANCH 106 108
ATOM    108  CA  ILE A  14      25.245  55.311  30.007  0.00  0.00    +0.000 C 
BRANCH 108 109
ATOM    109  C   ILE A  14      26.477  56.188  29.705  0.00  0.00    +0.000 C 
ATOM    110  O   ILE A  14      27.599  55.696  29.521  0.00  0.00    +0.000 OA
ENDBRANCH 108 109
BRANCH 108 111
ATOM    111  CB  ILE A  14      24.359  55.159  28.746  0.00  0.00    +0.000 C 
ATOM    112  CG2 ILE A  14      25.226  54.995  27.465  0.00  0.00    +0.000 C 
BRANCH 111 113
ATOM    113  CG1 ILE A  14      23.426  53.943  28.943  0.00  0.00    +0.000 C 
ATOM    114  CD1 ILE A  14      22.311  53.853  27.942  0.00  0.00    +0.000 C 
ENDBRANCH 111 113
ENDBRANCH 108 111
ENDBRANCH 106 108
ENDBRANCH 103 104
BRANCH 103 115
ATOM    115  C   UNK A  13      23.070  55.756  33.866  0.00  0.00    +0.000 C 
BRANCH 115 116
ATOM    116  C   UNK A  13      23.777  54.591  34.535  0.00  0.00    +0.000 C 
BRANCH 116 117
ATOM    117  N   UNK A  13      24.066  54.741  35.821  0.00  0.00    +0.000 NA
ATOM    118  H   UNK A  13      24.557  53.982  36.335  0.00  0.00    +0.000 HD
ATOM    119  H   UNK A  13      23.801  55.617  36.315  0.00  0.00    +0.000 HD
ENDBRANCH 116 117
BRANCH 116 120
ATOM    120  O   UNK A  13      24.067  53.583  33.914  0.00  0.00    +0.000 OA
BRANCH 120 121
ATOM    121 MG   UNK A   2      25.495  52.095  34.290  0.00  0.00    +0.000 Mg
BRANCH 121 122
ATOM    122  O   UNK A   2      26.987  53.532  34.861  0.00  0.00    +0.000 OA
BRANCH 122 123
ATOM    123  C   UNK A   2      28.071  53.944  34.417  0.00  0.00    +0.000 C 
ATOM    124  O   UNK A   2      28.752  54.777  35.049  0.00  0.00    +0.000 OA
BRANCH 123 125
ATOM    125  C   UNK A   2      28.603  53.408  33.059  0.00  0.00    +0.000 C 
BRANCH 125 126
ATOM    126  C   UNK A   2      29.655  54.350  32.426  0.00  0.00    +0.000 C 
BRANCH 126 127
ATOM    127  N   UNK A   2      29.078  55.679  32.341  0.00  0.00    +0.000 N 
ATOM    128  C   ARG A   1      29.734  56.744  32.793  0.00  0.00    +0.000 C 
ATOM    129  O   ARG A   1      30.904  56.694  33.179  0.00  0.00    +0.000 OA
ATOM    130  H   UNK A   2      28.135  55.801  31.919  0.00  0.00    +0.000 HD
BRANCH 128 131
ATOM    131  CA  ARG A   1      28.966  58.053  32.818  0.00  0.00    +0.000 C 
BRANCH 131 132
ATOM    132  N   ARG A   1      28.015  58.105  31.718  0.00  0.00    +0.000 NA
ATOM    133  H   ARG A   1      27.015  57.879  31.894  0.00  0.00    +0.000 HD
ENDBRANCH 131 132
BRANCH 131 134
ATOM    134  CB  ARG A   1      28.229  58.144  34.159  0.00  0.00    +0.000 C 
BRANCH 134 135
ATOM    135  CG  ARG A   1      29.140  58.091  35.408  0.00  0.00    +0.000 C 
BRANCH 135 136
ATOM    136  CD  ARG A   1      28.356  57.841  36.703  0.00  0.00    +0.000 C 
BRANCH 136 137
ATOM    137  NE  ARG A   1      27.914  56.439  36.726  0.00  0.00    +0.330 N 
ATOM    138  CZ  ARG A   1      27.064  55.913  37.605  0.00  0.00    +0.000 C 
ATOM    139  NH2 ARG A   1      26.539  56.665  38.574  0.00  0.00    +0.330 N 
ATOM    140 HH21 ARG A   1      25.876  56.245  39.256  0.00  0.00    +0.000 HD
ATOM    141 HH22 ARG A   1      26.793  57.671  38.647  0.00  0.00    +0.000 HD
ATOM    142  NH1 ARG A   1      26.720  54.621  37.500  0.00  0.00    +0.330 N 
ATOM    143 HH11 ARG A   1      26.056  54.202  38.183  0.00  0.00    +0.000 HD
ATOM    144 HH12 ARG A   1      27.117  54.038  36.736  0.00  0.00    +0.000 HD
ATOM    145  HE  ARG A   1      28.297  55.806  35.995  0.00  0.00    +0.000 HD
ENDBRANCH 136 137
ENDBRANCH 135 136
ENDBRANCH 134 135
ENDBRANCH 131 134
ENDBRANCH 128 131
ENDBRANCH 126 127
BRANCH 126 146
ATOM    146  C   UNK A   2      30.234  53.685  31.193  0.00  0.00    +0.000 C 
ATOM    147  O   UNK A   2      30.372  52.440  31.153  0.00  0.00    +0.000 OA
ENDBRANCH 126 146
ENDBRANCH 125 126
ENDBRANCH 123 125
ENDBRANCH 122 123
ENDBRANCH 121 122
ENDBRANCH 120 121
ENDBRANCH 116 120
ENDBRANCH 115 116
ENDBRANCH 103 115
ENDBRANCH 100 103
ENDBRANCH  98  99
BRANCH  98 148
ATOM    148  CB  ILE A  12      22.650  60.980  32.604  0.00  0.00    +0.000 C 
ATOM    149  CG2 ILE A  12      23.752  61.373  33.603  0.00  0.00    +0.000 C 
BRANCH 148 150
ATOM    150  CG1 ILE A  12      22.029  62.245  31.982  0.00  0.00    +0.000 C 
ATOM    151  CD1 ILE A  12      21.061  62.922  32.948  0.00  0.00    +0.000 C 
ENDBRANCH 148 150
ENDBRANCH  98 148
ENDBRANCH  95  98
ENDBRANCH  93  94
BRANCH  93 152
ATOM    152  CB  LEU A  11      20.543  58.941  27.977  0.00  0.00    +0.000 C 
BRANCH 152 153
ATOM    153  CG  LEU A  11      21.498  59.322  26.815  0.00  0.00    +0.000 C 
ATOM    154  CD2 LEU A  11      22.045  58.087  26.105  0.00  0.00    +0.000 C 
ATOM    155  CD1 LEU A  11      20.722  60.175  25.804  0.00  0.00    +0.000 C 
ENDBRANCH 152 153
ENDBRANCH  93 152
ENDBRANCH  91  93
ENDBRANCH  88  89
BRANCH  88 156
ATOM    156  CB  GLN A  10      18.426  55.223  31.205  0.00  0.00    +0.000 C 
BRANCH 156 157
ATOM    157  CG  GLN A  10      19.043  53.870  30.827  0.00  0.00    +0.000 C 
BRANCH 157 158
ATOM    158  CD  GLN A  10      19.665  53.168  32.039  0.00  0.00    +0.000 C 
ATOM    159  OE1 GLN A  10      19.103  53.174  33.132  0.00  0.00    +0.000 OA
ATOM    160  NE2 GLN A  10      20.843  52.590  31.852  0.00  0.00    +0.000 N 
ATOM    161 HE21 GLN A  10      21.324  52.120  32.646  0.00  0.00    +0.000 HD
ATOM    162 HE22 GLN A  10      21.287  52.606  30.912  0.00  0.00    +0.000 HD
ENDBRANCH 157 158
ENDBRANCH 156 157
ENDBRANCH  88 156
ENDBRANCH  86  88
ENDBRANCH   1  84
BRANCH   1 163
ATOM    163  CB  LEU A   9      17.727  59.213  34.782  0.00  0.00    +0.000 C 
BRANCH 163 164
ATOM    164  CG  LEU A   9      16.991  60.404  35.422  0.00  0.00    +0.000 C 
ATOM    165  CD2 LEU A   9      16.133  59.897  36.582  0.00  0.00    +0.000 C 
ATOM    166  CD1 LEU A   9      17.987  61.472  35.944  0.00  0.00    +0.000 C 
ENDBRANCH 163 164
ENDBRANCH   1 163
TORSDOF 72
REMARK  Name = ../refined-set-2016/2zcr/2zcr_pocket.pdb
REMARK  293 active torsions:
REMARK  status: ('A' for Active; 'I' for Inactive)
REMARK    1  A    between atoms: _1  and  _3
REMARK    2  A    between atoms: _3  and  _4
REMARK    3  A    between atoms: _3  and  _6
REMARK    4  A    between atoms: _6  and  _7
REMARK    5  A    between atoms: _7  and  _8
REMARK    6  A    between atoms: _10  and  _12
REMARK    7  A    between atoms: _12  and  _13
REMARK    8  A    between atoms: _12  and  _15
REMARK    9  A    between atoms: _15  and  _16
REMARK   10  A    between atoms: _21  and  _23
REMARK   11  A    between atoms: _23  and  _24
REMARK   12  A    between atoms: _23  and  _26
REMARK   13  A    between atoms: _26  and  _27
REMARK   14  A    between atoms: _29  and  _31
REMARK   15  A    between atoms: _31  and  _32
REMARK   16  A    between atoms: _31  and  _34
REMARK   17  A    between atoms: _34  and  _35
REMARK   18  A    between atoms: _35  and  _36
REMARK   19  A    between atoms: _36  and  _37
REMARK   20  A    between atoms: _37  and  _38
REMARK   21  A    between atoms: _42  and  _44
REMARK   22  A    between atoms: _44  and  _45
REMARK   23  A    between atoms: _44  and  _47
REMARK   24  A    between atoms: _47  and  _48
REMARK   25  A    between atoms: _50  and  _52
REMARK   26  A    between atoms: _52  and  _53
REMARK   27  A    between atoms: _52  and  _55
REMARK   28  A    between atoms: _55  and  _56
REMARK   29  A    between atoms: _62  and  _64
REMARK   30  A    between atoms: _64  and  _65
REMARK   31  A    between atoms: _68  and  _70
REMARK   32  A    between atoms: _70  and  _71
REMARK   33  A    between atoms: _70  and  _73
REMARK   34  A    between atoms: _73  and  _74
REMARK   35  A    between atoms: _80  and  _82
REMARK   36  A    between atoms: _82  and  _83
REMARK   37  A    between atoms: _82  and  _85
REMARK   38  A    between atoms: _85  and  _86
REMARK   39  A    between atoms: _89  and  _91
REMARK   40  A    between atoms: _91  and  _92
REMARK   41  A    between atoms: _91  and  _94
REMARK   42  A    between atoms: _97  and  _99
REMARK   43  A    between atoms: _99  and  _100
REMARK   44  A    between atoms: _99  and  _102
REMARK   45  A    between atoms: _102  and  _103
REMARK   46  A    between atoms: _106  and  _108
REMARK   47  A    between atoms: _108  and  _109
REMARK   48  A    between atoms: _108  and  _111
REMARK   49  A    between atoms: _111  and  _112
REMARK   50  A    between atoms: _117  and  _118
REMARK   51  A    between atoms: _120  and  _122
REMARK   52  A    between atoms: _122  and  _123
REMARK   53  A    between atoms: _122  and  _125
REMARK   54  A    between atoms: _127  and  _129
REMARK   55  A    between atoms: _129  and  _130
REMARK   56  A    between atoms: _129  and  _132
REMARK   57  A    between atoms: _132  and  _133
REMARK   58  A    between atoms: _133  and  _134
REMARK   59  A    between atoms: _134  and  _135
REMARK   60  A    between atoms: _144  and  _146
REMARK   61  A    between atoms: _146  and  _147
REMARK   62  A    between atoms: _146  and  _149
REMARK   63  A    between atoms: _149  and  _150
REMARK   64  A    between atoms: _153  and  _155
REMARK   65  A    between atoms: _155  and  _156
REMARK   66  A    between atoms: _155  and  _158
REMARK   67  A    between atoms: _158  and  _159
REMARK   68  A    between atoms: _162  and  _164
REMARK   69  A    between atoms: _164  and  _165
REMARK   70  A    between atoms: _164  and  _167
REMARK   71  A    between atoms: _167  and  _168
REMARK   72  A    between atoms: _171  and  _173
REMARK   73  A    between atoms: _173  and  _174
REMARK   74  A    between atoms: _173  and  _176
REMARK   75  A    between atoms: _179  and  _181
REMARK   76  A    between atoms: _181  and  _182
REMARK   77  A    between atoms: _181  and  _184
REMARK   78  A    between atoms: _184  and  _185
REMARK   79  A    between atoms: _188  and  _190
REMARK   80  A    between atoms: _190  and  _191
REMARK   81  A    between atoms: _190  and  _193
REMARK   82  A    between atoms: _193  and  _194
REMARK   83  A    between atoms: _199  and  _200
REMARK   84  A    between atoms: _202  and  _204
REMARK   85  A    between atoms: _204  and  _205
REMARK   86  A    between atoms: _204  and  _207
REMARK   87  A    between atoms: _209  and  _211
REMARK   88  A    between atoms: _211  and  _212
REMARK   89  A    between atoms: _211  and  _214
REMARK   90  A    between atoms: _217  and  _219
REMARK   91  A    between atoms: _219  and  _220
REMARK   92  A    between atoms: _223  and  _225
REMARK   93  A    between atoms: _225  and  _226
REMARK   94  A    between atoms: _228  and  _230
REMARK   95  A    between atoms: _230  and  _231
REMARK   96  A    between atoms: _230  and  _233
REMARK   97  A    between atoms: _233  and  _234
REMARK   98  A    between atoms: _237  and  _239
REMARK   99  A    between atoms: _239  and  _240
REMARK  100  A    between atoms: _239  and  _242
REMARK  101  A    between atoms: _245  and  _247
REMARK  102  A    between atoms: _247  and  _248
REMARK  103  A    between atoms: _250  and  _252
REMARK  104  A    between atoms: _252  and  _253
REMARK  105  A    between atoms: _252  and  _255
REMARK  106  A    between atoms: _255  and  _256
REMARK  107  A    between atoms: _256  and  _257
REMARK  108  A    between atoms: _260  and  _262
REMARK  109  A    between atoms: _262  and  _263
REMARK  110  A    between atoms: _262  and  _265
REMARK  111  A    between atoms: _268  and  _270
REMARK  112  A    between atoms: _270  and  _271
REMARK  113  A    between atoms: _270  and  _273
REMARK  114  A    between atoms: _273  and  _274
REMARK  115  A    between atoms: _277  and  _279
REMARK  116  A    between atoms: _279  and  _280
REMARK  117  A    between atoms: _279  and  _282
REMARK  118  A    between atoms: _282  and  _283
REMARK  119  A    between atoms: _286  and  _288
REMARK  120  A    between atoms: _288  and  _289
REMARK  121  A    between atoms: _288  and  _291
REMARK  122  A    between atoms: _291  and  _292
REMARK  123  A    between atoms: _295  and  _297
REMARK  124  A    between atoms: _297  and  _298
REMARK  125  A    between atoms: _297  and  _300
REMARK  126  A    between atoms: _300  and  _301
REMARK  127  A    between atoms: _304  and  _306
REMARK  128  A    between atoms: _306  and  _307
REMARK  129  A    between atoms: _306  and  _309
REMARK  130  A    between atoms: _309  and  _310
REMARK  131  A    between atoms: _312  and  _314
REMARK  132  A    between atoms: _314  and  _315
REMARK  133  A    between atoms: _314  and  _317
REMARK  134  A    between atoms: _317  and  _318
REMARK  135  A    between atoms: _321  and  _323
REMARK  136  A    between atoms: _323  and  _324
REMARK  137  A    between atoms: _323  and  _326
REMARK  138  A    between atoms: _326  and  _327
REMARK  139  A    between atoms: _332  and  _333
REMARK  140  A    between atoms: _335  and  _337
REMARK  141  A    between atoms: _337  and  _338
REMARK  142  A    between atoms: _337  and  _340
REMARK  143  A    between atoms: _343  and  _345
REMARK  144  A    between atoms: _345  and  _346
REMARK  145  A    between atoms: _349  and  _351
REMARK  146  A    between atoms: _351  and  _352
REMARK  147  A    between atoms: _351  and  _354
REMARK  148  A    between atoms: _354  and  _355
REMARK  149  A    between atoms: _355  and  _356
REMARK  150  A    between atoms: _356  and  _357
REMARK  151  A    between atoms: _366  and  _368
REMARK  152  A    between atoms: _368  and  _369
REMARK  153  A    between atoms: _368  and  _371
REMARK  154  A    between atoms: _371  and  _372
REMARK  155  A    between atoms: _372  and  _373
REMARK  156  A    between atoms: _373  and  _374
REMARK  157  A    between atoms: _383  and  _385
REMARK  158  A    between atoms: _385  and  _386
REMARK  159  A    between atoms: _385  and  _388
REMARK  160  A    between atoms: _388  and  _389
REMARK  161  A    between atoms: _392  and  _394
REMARK  162  A    between atoms: _394  and  _395
REMARK  163  A    between atoms: _397  and  _399
REMARK  164  A    between atoms: _399  and  _400
REMARK  165  A    between atoms: _399  and  _402
REMARK  166  A    between atoms: _402  and  _403
REMARK  167  A    between atoms: _403  and  _404
REMARK  168  A    between atoms: _407  and  _409
REMARK  169  A    between atoms: _409  and  _410
REMARK  170  A    between atoms: _409  and  _412
REMARK  171  A    between atoms: _412  and  _413
REMARK  172  A    between atoms: _415  and  _417
REMARK  173  A    between atoms: _417  and  _418
REMARK  174  A    between atoms: _417  and  _420
REMARK  175  A    between atoms: _420  and  _421
REMARK  176  A    between atoms: _424  and  _426
REMARK  177  A    between atoms: _426  and  _427
REMARK  178  A    between atoms: _426  and  _429
REMARK  179  A    between atoms: _429  and  _430
REMARK  180  A    between atoms: _430  and  _431
REMARK  181  A    between atoms: _436  and  _438
REMARK  182  A    between atoms: _438  and  _439
REMARK  183  A    between atoms: _438  and  _441
REMARK  184  A    between atoms: _441  and  _442
REMARK  185  A    between atoms: _445  and  _447
REMARK  186  A    between atoms: _447  and  _448
REMARK  187  A    between atoms: _447  and  _450
REMARK  188  A    between atoms: _450  and  _451
REMARK  189  A    between atoms: _454  and  _456
REMARK  190  A    between atoms: _456  and  _457
REMARK  191  A    between atoms: _456  and  _459
REMARK  192  A    between atoms: _459  and  _460
REMARK  193  A    between atoms: _460  and  _461
REMARK  194  A    between atoms: _460  and  _462
REMARK  195  A    between atoms: _461  and  MG_705
REMARK  196  A    between atoms: _465  and  _467
REMARK  197  A    between atoms: _467  and  _468
REMARK  198  A    between atoms: _467  and  _470
REMARK  199  A    between atoms: _470  and  _471
REMARK  200  A    between atoms: _474  and  _476
REMARK  201  A    between atoms: _476  and  _477
REMARK  202  A    between atoms: _476  and  _479
REMARK  203  A    between atoms: _479  and  _480
REMARK  204  A    between atoms: _480  and  _481
REMARK  205  A    between atoms: _481  and  _482
REMARK  206  A    between atoms: _491  and  _493
REMARK  207  A    between atoms: _493  and  _494
REMARK  208  A    between atoms: _493  and  _496
REMARK  209  A    between atoms: _496  and  _497
REMARK  210  A    between atoms: _497  and  _499
REMARK  211  A    between atoms: _499  and  MG_705
REMARK  212  A    between atoms: _500  and  _502
REMARK  213  A    between atoms: _502  and  _503
REMARK  214  A    between atoms: _502  and  _505
REMARK  215  A    between atoms: _505  and  _506
REMARK  216  A    between atoms: _506  and  _507
REMARK  217  A    between atoms: _510  and  _512
REMARK  218  A    between atoms: _512  and  _513
REMARK  219  A    between atoms: _512  and  _515
REMARK  220  A    between atoms: _515  and  _516
REMARK  221  A    between atoms: _519  and  _521
REMARK  222  A    between atoms: _521  and  _522
REMARK  223  A    between atoms: _521  and  _524
REMARK  224  A    between atoms: _524  and  _525
REMARK  225  A    between atoms: _530  and  _532
REMARK  226  A    between atoms: _532  and  _533
REMARK  227  A    between atoms: _532  and  _535
REMARK  228  A    between atoms: _535  and  _536
REMARK  229  A    between atoms: _536  and  _537
REMARK  230  A    between atoms: _537  and  _538
REMARK  231  A    between atoms: _547  and  _549
REMARK  232  A    between atoms: _549  and  _550
REMARK  233  A    between atoms: _549  and  _552
REMARK  234  A    between atoms: _552  and  _553
REMARK  235  A    between atoms: _558  and  _559
REMARK  236  A    between atoms: _561  and  _563
REMARK  237  A    between atoms: _563  and  _564
REMARK  238  A    between atoms: _563  and  _566
REMARK  239  A    between atoms: _569  and  _571
REMARK  240  A    between atoms: _571  and  _572
REMARK  241  A    between atoms: _571  and  _574
REMARK  242  A    between atoms: _574  and  _575
REMARK  243  A    between atoms: _575  and  _576
REMARK  244  A    between atoms: _578  and  _580
REMARK  245  A    between atoms: _580  and  _581
REMARK  246  A    between atoms: _580  and  _583
REMARK  247  A    between atoms: _583  and  _584
REMARK  248  A    between atoms: _587  and  _589
REMARK  249  A    between atoms: _589  and  _590
REMARK  250  A    between atoms: _589  and  _592
REMARK  251  A    between atoms: _595  and  _597
REMARK  252  A    between atoms: _597  and  _598
REMARK  253  A    between atoms: _597  and  _600
REMARK  254  A    between atoms: _600  and  _601
REMARK  255  A    between atoms: _607  and  _609
REMARK  256  A    between atoms: _609  and  _610
REMARK  257  A    between atoms: _613  and  _615
REMARK  258  A    between atoms: _615  and  _616
REMARK  259  A    between atoms: _615  and  _618
REMARK  260  A    between atoms: _618  and  _619
REMARK  261  A    between atoms: _619  and  _620
REMARK  262  A    between atoms: _625  and  _627
REMARK  263  A    between atoms: _627  and  _628
REMARK  264  A    between atoms: _627  and  _630
REMARK  265  A    between atoms: _630  and  _631
REMARK  266  A    between atoms: _634  and  _636
REMARK  267  A    between atoms: _636  and  _637
REMARK  268  A    between atoms: _636  and  _639
REMARK  269  A    between atoms: _639  and  _640
REMARK  270  A    between atoms: _643  and  _645
REMARK  271  A    between atoms: _645  and  _646
REMARK  272  A    between atoms: _645  and  _648
REMARK  273  A    between atoms: _648  and  _649
REMARK  274  A    between atoms: _649  and  _650
REMARK  275  A    between atoms: _653  and  _655
REMARK  276  A    between atoms: _655  and  _656
REMARK  277  A    between atoms: _659  and  _661
REMARK  278  A    between atoms: _661  and  _662
REMARK  279  A    between atoms: _665  and  _667
REMARK  280  A    between atoms: _667  and  _668
REMARK  281  A    between atoms: _667  and  _670
REMARK  282  A    between atoms: _670  and  _671
REMARK  283  A    between atoms: _676  and  _677
REMARK  284  A    between atoms: _679  and  _681
REMARK  285  A    between atoms: _681  and  _682
REMARK  286  A    between atoms: _681  and  _684
REMARK  287  A    between atoms: _684  and  _685
REMARK  288  A    between atoms: _688  and  _690
REMARK  289  A    between atoms: _690  and  _691
REMARK  290  A    between atoms: _690  and  _693
REMARK  291  A    between atoms: _693  and  _694
REMARK  292  A    between atoms: _694  and  _695
REMARK  293  A    between atoms: _695  and  _696
REMARK                            x       y       z     vdW  Elec       q    Type
REMARK                         _______ _______ _______ _____ _____    ______ ____
ROOT
ATOM      1  C   GLU A   1      31.971  49.125  32.277  0.00  0.00    +0.238 C 
ATOM      2  O   GLU A   1      32.014  47.890  32.429  0.00  0.00    -0.274 OA
ATOM      3  N   ASP A   2      31.116  49.712  31.443  0.00  0.00    -0.298 N 
ATOM      4  H   ASP A   2      31.083  50.748  31.360  0.00  0.00    +0.150 HD
ENDROOT
BRANCH   1   5
ATOM      5  CA  GLU A   1      32.906  50.031  33.045  0.00  0.00    +0.145 C 
BRANCH   5   6
ATOM      6  N   GLU A   1      33.258  51.205  32.282  0.00  0.00    -0.238 NA
ATOM      7  H   GLU A   1      32.940  52.140  32.607  0.00  0.00    +0.142 HD
ENDBRANCH   5   6
BRANCH   5   8
ATOM      8  CB  GLU A   1      32.296  50.419  34.388  0.00  0.00    +0.038 C 
BRANCH   8   9
ATOM      9  CG  GLU A   1      31.059  51.308  34.338  0.00  0.00    +0.116 C 
BRANCH   9  10
ATOM     10  CD  GLU A   1      30.348  51.403  35.723  0.00  0.00    +0.365 C 
ATOM     11  OE2 GLU A   1      30.960  51.884  36.708  0.00  0.00    -0.246 OA
ATOM     12  OE1 GLU A   1      29.170  50.984  35.811  0.00  0.00    -0.246 OA
ENDBRANCH   9  10
ENDBRANCH   8   9
ENDBRANCH   5   8
ENDBRANCH   1   5
BRANCH   3  13
ATOM     13  CA  ASP A   2      30.228  48.876  30.649  0.00  0.00    +0.148 C 
BRANCH  13  14
ATOM     14  C   ASP A   2      31.080  48.105  29.638  0.00  0.00    +0.227 C 
ATOM     15  O   ASP A   2      30.881  46.908  29.445  0.00  0.00    -0.286 OA
ENDBRANCH  13  14
BRANCH  13  16
ATOM     16  CB  ASP A   2      29.162  49.728  29.943  0.00  0.00    +0.142 C 
BRANCH  16  17
ATOM     17  CG  ASP A   2      28.108  50.235  30.908  0.00  0.00    +0.367 C 
ATOM     18  OD2 ASP A   2      28.014  49.638  32.001  0.00  0.00    -0.246 OA
ATOM     19  OD1 ASP A   2      27.384  51.202  30.596  0.00  0.00    -0.246 OA
ENDBRANCH  16  17
ENDBRANCH  13  16
ENDBRANCH   3  13
TORSDOF 9
REMARK  Name = ../refined-set-2016/2zcr/2zcr_pocket.pdb
REMARK  293 active torsions:
REMARK  status: ('A' for Active; 'I' for Inactive)
REMARK    1  A    between atoms: _1  and  _3
REMARK    2  A    between atoms: _3  and  _4
REMARK    3  A    between atoms: _3  and  _6
REMARK    4  A    between atoms: _6  and  _7
REMARK    5  A    between atoms: _7  and  _8
REMARK    6  A    between atoms: _10  and  _12
REMARK    7  A    between atoms: _12  and  _13
REMARK    8  A    between atoms: _12  and  _15
REMARK    9  A    between atoms: _15  and  _16
REMARK   10  A    between atoms: _21  and  _23
REMARK   11  A    between atoms: _23  and  _24
REMARK   12  A    between atoms: _23  and  _26
REMARK   13  A    between atoms: _26  and  _27
REMARK   14  A    between atoms: _29  and  _31
REMARK   15  A    between atoms: _31  and  _32
REMARK   16  A    between atoms: _31  and  _34
REMARK   17  A    between atoms: _34  and  _35
REMARK   18  A    between atoms: _35  and  _36
REMARK   19  A    between atoms: _36  and  _37
REMARK   20  A    between atoms: _37  and  _38
REMARK   21  A    between atoms: _42  and  _44
REMARK   22  A    between atoms: _44  and  _45
REMARK   23  A    between atoms: _44  and  _47
REMARK   24  A    between atoms: _47  and  _48
REMARK   25  A    between atoms: _50  and  _52
REMARK   26  A    between atoms: _52  and  _53
REMARK   27  A    between atoms: _52  and  _55
REMARK   28  A    between atoms: _55  and  _56
REMARK   29  A    between atoms: _62  and  _64
REMARK   30  A    between atoms: _64  and  _65
REMARK   31  A    between atoms: _68  and  _70
REMARK   32  A    between atoms: _70  and  _71
REMARK   33  A    between atoms: _70  and  _73
REMARK   34  A    between atoms: _73  and  _74
REMARK   35  A    between atoms: _80  and  _82
REMARK   36  A    between atoms: _82  and  _83
REMARK   37  A    between atoms: _82  and  _85
REMARK   38  A    between atoms: _85  and  _86
REMARK   39  A    between atoms: _89  and  _91
REMARK   40  A    between atoms: _91  and  _92
REMARK   41  A    between atoms: _91  and  _94
REMARK   42  A    between atoms: _97  and  _99
REMARK   43  A    between atoms: _99  and  _100
REMARK   44  A    between atoms: _99  and  _102
REMARK   45  A    between atoms: _102  and  _103
REMARK   46  A    between atoms: _106  and  _108
REMARK   47  A    between atoms: _108  and  _109
REMARK   48  A    between atoms: _108  and  _111
REMARK   49  A    between atoms: _111  and  _112
REMARK   50  A    between atoms: _117  and  _118
REMARK   51  A    between atoms: _120  and  _122
REMARK   52  A    between atoms: _122  and  _123
REMARK   53  A    between atoms: _122  and  _125
REMARK   54  A    between atoms: _127  and  _129
REMARK   55  A    between atoms: _129  and  _130
REMARK   56  A    between atoms: _129  and  _132
REMARK   57  A    between atoms: _132  and  _133
REMARK   58  A    between atoms: _133  and  _134
REMARK   59  A    between atoms: _134  and  _135
REMARK   60  A    between atoms: _144  and  _146
REMARK   61  A    between atoms: _146  and  _147
REMARK   62  A    between atoms: _146  and  _149
REMARK   63  A    between atoms: _149  and  _150
REMARK   64  A    between atoms: _153  and  _155
REMARK   65  A    between atoms: _155  and  _156
REMARK   66  A    between atoms: _155  and  _158
REMARK   67  A    between atoms: _158  and  _159
REMARK   68  A    between atoms: _162  and  _164
REMARK   69  A    between atoms: _164  and  _165
REMARK   70  A    between atoms: _164  and  _167
REMARK   71  A    between atoms: _167  and  _168
REMARK   72  A    between atoms: _171  and  _173
REMARK   73  A    between atoms: _173  and  _174
REMARK   74  A    between atoms: _173  and  _176
REMARK   75  A    between atoms: _179  and  _181
REMARK   76  A    between atoms: _181  and  _182
REMARK   77  A    between atoms: _181  and  _184
REMARK   78  A    between atoms: _184  and  _185
REMARK   79  A    between atoms: _188  and  _190
REMARK   80  A    between atoms: _190  and  _191
REMARK   81  A    between atoms: _190  and  _193
REMARK   82  A    between atoms: _193  and  _194
REMARK   83  A    between atoms: _199  and  _200
REMARK   84  A    between atoms: _202  and  _204
REMARK   85  A    between atoms: _204  and  _205
REMARK   86  A    between atoms: _204  and  _207
REMARK   87  A    between atoms: _209  and  _211
REMARK   88  A    between atoms: _211  and  _212
REMARK   89  A    between atoms: _211  and  _214
REMARK   90  A    between atoms: _217  and  _219
REMARK   91  A    between atoms: _219  and  _220
REMARK   92  A    between atoms: _223  and  _225
REMARK   93  A    between atoms: _225  and  _226
REMARK   94  A    between atoms: _228  and  _230
REMARK   95  A    between atoms: _230  and  _231
REMARK   96  A    between atoms: _230  and  _233
REMARK   97  A    between atoms: _233  and  _234
REMARK   98  A    between atoms: _237  and  _239
REMARK   99  A    between atoms: _239  and  _240
REMARK  100  A    between atoms: _239  and  _242
REMARK  101  A    between atoms: _245  and  _247
REMARK  102  A    between atoms: _247  and  _248
REMARK  103  A    between atoms: _250  and  _252
REMARK  104  A    between atoms: _252  and  _253
REMARK  105  A    between atoms: _252  and  _255
REMARK  106  A    between atoms: _255  and  _256
REMARK  107  A    between atoms: _256  and  _257
REMARK  108  A    between atoms: _260  and  _262
REMARK  109  A    between atoms: _262  and  _263
REMARK  110  A    between atoms: _262  and  _265
REMARK  111  A    between atoms: _268  and  _270
REMARK  112  A    between atoms: _270  and  _271
REMARK  113  A    between atoms: _270  and  _273
REMARK  114  A    between atoms: _273  and  _274
REMARK  115  A    between atoms: _277  and  _279
REMARK  116  A    between atoms: _279  and  _280
REMARK  117  A    between atoms: _279  and  _282
REMARK  118  A    between atoms: _282  and  _283
REMARK  119  A    between atoms: _286  and  _288
REMARK  120  A    between atoms: _288  and  _289
REMARK  121  A    between atoms: _288  and  _291
REMARK  122  A    between atoms: _291  and  _292
REMARK  123  A    between atoms: _295  and  _297
REMARK  124  A    between atoms: _297  and  _298
REMARK  125  A    between atoms: _297  and  _300
REMARK  126  A    between atoms: _300  and  _301
REMARK  127  A    between atoms: _304  and  _306
REMARK  128  A    between atoms: _306  and  _307
REMARK  129  A    between atoms: _306  and  _309
REMARK  130  A    between atoms: _309  and  _310
REMARK  131  A    between atoms: _312  and  _314
REMARK  132  A    between atoms: _314  and  _315
REMARK  133  A    between atoms: _314  and  _317
REMARK  134  A    between atoms: _317  and  _318
REMARK  135  A    between atoms: _321  and  _323
REMARK  136  A    between atoms: _323  and  _324
REMARK  137  A    between atoms: _323  and  _326
REMARK  138  A    between atoms: _326  and  _327
REMARK  139  A    between atoms: _332  and  _333
REMARK  140  A    between atoms: _335  and  _337
REMARK  141  A    between atoms: _337  and  _338
REMARK  142  A    between atoms: _337  and  _340
REMARK  143  A    between atoms: _343  and  _345
REMARK  144  A    between atoms: _345  and  _346
REMARK  145  A    between atoms: _349  and  _351
REMARK  146  A    between atoms: _351  and  _352
REMARK  147  A    between atoms: _351  and  _354
REMARK  148  A    between atoms: _354  and  _355
REMARK  149  A    between atoms: _355  and  _356
REMARK  150  A    between atoms: _356  and  _357
REMARK  151  A    between atoms: _366  and  _368
REMARK  152  A    between atoms: _368  and  _369
REMARK  153  A    between atoms: _368  and  _371
REMARK  154  A    between atoms: _371  and  _372
REMARK  155  A    between atoms: _372  and  _373
REMARK  156  A    between atoms: _373  and  _374
REMARK  157  A    between atoms: _383  and  _385
REMARK  158  A    between atoms: _385  and  _386
REMARK  159  A    between atoms: _385  and  _388
REMARK  160  A    between atoms: _388  and  _389
REMARK  161  A    between atoms: _392  and  _394
REMARK  162  A    between atoms: _394  and  _395
REMARK  163  A    between atoms: _397  and  _399
REMARK  164  A    between atoms: _399  and  _400
REMARK  165  A    between atoms: _399  and  _402
REMARK  166  A    between atoms: _402  and  _403
REMARK  167  A    between atoms: _403  and  _404
REMARK  168  A    between atoms: _407  and  _409
REMARK  169  A    between atoms: _409  and  _410
REMARK  170  A    between atoms: _409  and  _412
REMARK  171  A    between atoms: _412  and  _413
REMARK  172  A    between atoms: _415  and  _417
REMARK  173  A    between atoms: _417  and  _418
REMARK  174  A    between atoms: _417  and  _420
REMARK  175  A    between atoms: _420  and  _421
REMARK  176  A    between atoms: _424  and  _426
REMARK  177  A    between atoms: _426  and  _427
REMARK  178  A    between atoms: _426  and  _429
REMARK  179  A    between atoms: _429  and  _430
REMARK  180  A    between atoms: _430  and  _431
REMARK  181  A    between atoms: _436  and  _438
REMARK  182  A    between atoms: _438  and  _439
REMARK  183  A    between atoms: _438  and  _441
REMARK  184  A    between atoms: _441  and  _442
REMARK  185  A    between atoms: _445  and  _447
REMARK  186  A    between atoms: _447  and  _448
REMARK  187  A    between atoms: _447  and  _450
REMARK  188  A    between atoms: _450  and  _451
REMARK  189  A    between atoms: _454  and  _456
REMARK  190  A    between atoms: _456  and  _457
REMARK  191  A    between atoms: _456  and  _459
REMARK  192  A    between atoms: _459  and  _460
REMARK  193  A    between atoms: _460  and  _461
REMARK  194  A    between atoms: _460  and  _462
REMARK  195  A    between atoms: _461  and  MG_705
REMARK  196  A    between atoms: _465  and  _467
REMARK  197  A    between atoms: _467  and  _468
REMARK  198  A    between atoms: _467  and  _470
REMARK  199  A    between atoms: _470  and  _471
REMARK  200  A    between atoms: _474  and  _476
REMARK  201  A    between atoms: _476  and  _477
REMARK  202  A    between atoms: _476  and  _479
REMARK  203  A    between atoms: _479  and  _480
REMARK  204  A    between atoms: _480  and  _481
REMARK  205  A    between atoms: _481  and  _482
REMARK  206  A    between atoms: _491  and  _493
REMARK  207  A    between atoms: _493  and  _494
REMARK  208  A    between atoms: _493  and  _496
REMARK  209  A    between atoms: _496  and  _497
REMARK  210  A    between atoms: _497  and  _499
REMARK  211  A    between atoms: _499  and  MG_705
REMARK  212  A    between atoms: _500  and  _502
REMARK  213  A    between atoms: _502  and  _503
REMARK  214  A    between atoms: _502  and  _505
REMARK  215  A    between atoms: _505  and  _506
REMARK  216  A    between atoms: _506  and  _507
REMARK  217  A    between atoms: _510  and  _512
REMARK  218  A    between atoms: _512  and  _513
REMARK  219  A    between atoms: _512  and  _515
REMARK  220  A    between atoms: _515  and  _516
REMARK  221  A    between atoms: _519  and  _521
REMARK  222  A    between atoms: _521  and  _522
REMARK  223  A    between atoms: _521  and  _524
REMARK  224  A    between atoms: _524  and  _525
REMARK  225  A    between atoms: _530  and  _532
REMARK  226  A    between atoms: _532  and  _533
REMARK  227  A    between atoms: _532  and  _535
REMARK  228  A    between atoms: _535  and  _536
REMARK  229  A    between atoms: _536  and  _537
REMARK  230  A    between atoms: _537  and  _538
REMARK  231  A    between atoms: _547  and  _549
REMARK  232  A    between atoms: _549  and  _550
REMARK  233  A    between atoms: _549  and  _552
REMARK  234  A    between atoms: _552  and  _553
REMARK  235  A    between atoms: _558  and  _559
REMARK  236  A    between atoms: _561  and  _563
REMARK  237  A    between atoms: _563  and  _564
REMARK  238  A    between atoms: _563  and  _566
REMARK  239  A    between atoms: _569  and  _571
REMARK  240  A    between atoms: _571  and  _572
REMARK  241  A    between atoms: _571  and  _574
REMARK  242  A    between atoms: _574  and  _575
REMARK  243  A    between atoms: _575  and  _576
REMARK  244  A    between atoms: _578  and  _580
REMARK  245  A    between atoms: _580  and  _581
REMARK  246  A    between atoms: _580  and  _583
REMARK  247  A    between atoms: _583  and  _584
REMARK  248  A    between atoms: _587  and  _589
REMARK  249  A    between atoms: _589  and  _590
REMARK  250  A    between atoms: _589  and  _592
REMARK  251  A    between atoms: _595  and  _597
REMARK  252  A    between atoms: _597  and  _598
REMARK  253  A    between atoms: _597  and  _600
REMARK  254  A    between atoms: _600  and  _601
REMARK  255  A    between atoms: _607  and  _609
REMARK  256  A    between atoms: _609  and  _610
REMARK  257  A    between atoms: _613  and  _615
REMARK  258  A    between atoms: _615  and  _616
REMARK  259  A    between atoms: _615  and  _618
REMARK  260  A    between atoms: _618  and  _619
REMARK  261  A    between atoms: _619  and  _620
REMARK  262  A    between atoms: _625  and  _627
REMARK  263  A    between atoms: _627  and  _628
REMARK  264  A    between atoms: _627  and  _630
REMARK  265  A    between atoms: _630  and  _631
REMARK  266  A    between atoms: _634  and  _636
REMARK  267  A    between atoms: _636  and  _637
REMARK  268  A    between atoms: _636  and  _639
REMARK  269  A    between atoms: _639  and  _640
REMARK  270  A    between atoms: _643  and  _645
REMARK  271  A    between atoms: _645  and  _646
REMARK  272  A    between atoms: _645  and  _648
REMARK  273  A    between atoms: _648  and  _649
REMARK  274  A    between atoms: _649  and  _650
REMARK  275  A    between atoms: _653  and  _655
REMARK  276  A    between atoms: _655  and  _656
REMARK  277  A    between atoms: _659  and  _661
REMARK  278  A    between atoms: _661  and  _662
REMARK  279  A    between atoms: _665  and  _667
REMARK  280  A    between atoms: _667  and  _668
REMARK  281  A    between atoms: _667  and  _670
REMARK  282  A    between atoms: _670  and  _671
REMARK  283  A    between atoms: _676  and  _677
REMARK  284  A    between atoms: _679  and  _681
REMARK  285  A    between atoms: _681  and  _682
REMARK  286  A    between atoms: _681  and  _684
REMARK  287  A    between atoms: _684  and  _685
REMARK  288  A    between atoms: _688  and  _690
REMARK  289  A    between atoms: _690  and  _691
REMARK  290  A    between atoms: _690  and  _693
REMARK  291  A    between atoms: _693  and  _694
REMARK  292  A    between atoms: _694  and  _695
REMARK  293  A    between atoms: _695  and  _696
REMARK                            x       y       z     vdW  Elec       q    Type
REMARK                         _______ _______ _______ _____ _____    ______ ____
ROOT
ATOM      1  CB  ASN A   1      30.516  44.578  32.156  0.00  0.00    +0.110 C 
ENDROOT
BRANCH   1   2
ATOM      2  CG  ASN A   1      31.115  44.851  33.549  0.00  0.00    +0.221 C 
ATOM      3  ND2 ASN A   1      30.595  45.868  34.234  0.00  0.00    -0.329 N 
ATOM      4 HD21 ASN A   1      30.952  46.091  35.185  0.00  0.00    +0.145 HD
ATOM      5 HD22 ASN A   1      29.832  46.439  33.818  0.00  0.00    +0.145 HD
ATOM      6  OD1 ASN A   1      32.028  44.139  34.002  0.00  0.00    -0.275 OA
ENDBRANCH   1   2
BRANCH   1   7
ATOM      7  CA  ASN A   1      31.573  44.100  31.147  0.00  0.00    +0.142 C 
BRANCH   7   8
ATOM      8  N   ASN A   1      32.576  45.131  30.927  0.00  0.00    -0.239 NA
ATOM      9  H   ASN A   1      32.276  46.120  30.812  0.00  0.00    +0.142 HD
ENDBRANCH   7   8
BRANCH   7  10
ATOM     10  C   ASN A   1      30.916  43.661  29.843  0.00  0.00    +0.225 C 
ATOM     11  O   ASN A   1      29.798  43.149  29.832  0.00  0.00    -0.287 OA
ENDBRANCH   7  10
ENDBRANCH   1   7
TORSDOF 4
REMARK  Name = ../refined-set-2016/2zcr/2zcr_pocket.pdb
REMARK  293 active torsions:
REMARK  status: ('A' for Active; 'I' for Inactive)
REMARK    1  A    between atoms: _1  and  _3
REMARK    2  A    between atoms: _3  and  _4
REMARK    3  A    between atoms: _3  and  _6
REMARK    4  A    between atoms: _6  and  _7
REMARK    5  A    between atoms: _7  and  _8
REMARK    6  A    between atoms: _10  and  _12
REMARK    7  A    between atoms: _12  and  _13
REMARK    8  A    between atoms: _12  and  _15
REMARK    9  A    between atoms: _15  and  _16
REMARK   10  A    between atoms: _21  and  _23
REMARK   11  A    between atoms: _23  and  _24
REMARK   12  A    between atoms: _23  and  _26
REMARK   13  A    between atoms: _26  and  _27
REMARK   14  A    between atoms: _29  and  _31
REMARK   15  A    between atoms: _31  and  _32
REMARK   16  A    between atoms: _31  and  _34
REMARK   17  A    between atoms: _34  and  _35
REMARK   18  A    between atoms: _35  and  _36
REMARK   19  A    between atoms: _36  and  _37
REMARK   20  A    between atoms: _37  and  _38
REMARK   21  A    between atoms: _42  and  _44
REMARK   22  A    between atoms: _44  and  _45
REMARK   23  A    between atoms: _44  and  _47
REMARK   24  A    between atoms: _47  and  _48
REMARK   25  A    between atoms: _50  and  _52
REMARK   26  A    between atoms: _52  and  _53
REMARK   27  A    between atoms: _52  and  _55
REMARK   28  A    between atoms: _55  and  _56
REMARK   29  A    between atoms: _62  and  _64
REMARK   30  A    between atoms: _64  and  _65
REMARK   31  A    between atoms: _68  and  _70
REMARK   32  A    between atoms: _70  and  _71
REMARK   33  A    between atoms: _70  and  _73
REMARK   34  A    between atoms: _73  and  _74
REMARK   35  A    between atoms: _80  and  _82
REMARK   36  A    between atoms: _82  and  _83
REMARK   37  A    between atoms: _82  and  _85
REMARK   38  A    between atoms: _85  and  _86
REMARK   39  A    between atoms: _89  and  _91
REMARK   40  A    between atoms: _91  and  _92
REMARK   41  A    between atoms: _91  and  _94
REMARK   42  A    between atoms: _97  and  _99
REMARK   43  A    between atoms: _99  and  _100
REMARK   44  A    between atoms: _99  and  _102
REMARK   45  A    between atoms: _102  and  _103
REMARK   46  A    between atoms: _106  and  _108
REMARK   47  A    between atoms: _108  and  _109
REMARK   48  A    between atoms: _108  and  _111
REMARK   49  A    between atoms: _111  and  _112
REMARK   50  A    between atoms: _117  and  _118
REMARK   51  A    between atoms: _120  and  _122
REMARK   52  A    between atoms: _122  and  _123
REMARK   53  A    between atoms: _122  and  _125
REMARK   54  A    between atoms: _127  and  _129
REMARK   55  A    between atoms: _129  and  _130
REMARK   56  A    between atoms: _129  and  _132
REMARK   57  A    between atoms: _132  and  _133
REMARK   58  A    between atoms: _133  and  _134
REMARK   59  A    between atoms: _134  and  _135
REMARK   60  A    between atoms: _144  and  _146
REMARK   61  A    between atoms: _146  and  _147
REMARK   62  A    between atoms: _146  and  _149
REMARK   63  A    between atoms: _149  and  _150
REMARK   64  A    between atoms: _153  and  _155
REMARK   65  A    between atoms: _155  and  _156
REMARK   66  A    between atoms: _155  and  _158
REMARK   67  A    between atoms: _158  and  _159
REMARK   68  A    between atoms: _162  and  _164
REMARK   69  A    between atoms: _164  and  _165
REMARK   70  A    between atoms: _164  and  _167
REMARK   71  A    between atoms: _167  and  _168
REMARK   72  A    between atoms: _171  and  _173
REMARK   73  A    between atoms: _173  and  _174
REMARK   74  A    between atoms: _173  and  _176
REMARK   75  A    between atoms: _179  and  _181
REMARK   76  A    between atoms: _181  and  _182
REMARK   77  A    between atoms: _181  and  _184
REMARK   78  A    between atoms: _184  and  _185
REMARK   79  A    between atoms: _188  and  _190
REMARK   80  A    between atoms: _190  and  _191
REMARK   81  A    between atoms: _190  and  _193
REMARK   82  A    between atoms: _193  and  _194
REMARK   83  A    between atoms: _199  and  _200
REMARK   84  A    between atoms: _202  and  _204
REMARK   85  A    between atoms: _204  and  _205
REMARK   86  A    between atoms: _204  and  _207
REMARK   87  A    between atoms: _209  and  _211
REMARK   88  A    between atoms: _211  and  _212
REMARK   89  A    between atoms: _211  and  _214
REMARK   90  A    between atoms: _217  and  _219
REMARK   91  A    between atoms: _219  and  _220
REMARK   92  A    between atoms: _223  and  _225
REMARK   93  A    between atoms: _225  and  _226
REMARK   94  A    between atoms: _228  and  _230
REMARK   95  A    between atoms: _230  and  _231
REMARK   96  A    between atoms: _230  and  _233
REMARK   97  A    between atoms: _233  and  _234
REMARK   98  A    between atoms: _237  and  _239
REMARK   99  A    between atoms: _239  and  _240
REMARK  100  A    between atoms: _239  and  _242
REMARK  101  A    between atoms: _245  and  _247
REMARK  102  A    between atoms: _247  and  _248
REMARK  103  A    between atoms: _250  and  _252
REMARK  104  A    between atoms: _252  and  _253
REMARK  105  A    between atoms: _252  and  _255
REMARK  106  A    between atoms: _255  and  _256
REMARK  107  A    between atoms: _256  and  _257
REMARK  108  A    between atoms: _260  and  _262
REMARK  109  A    between atoms: _262  and  _263
REMARK  110  A    between atoms: _262  and  _265
REMARK  111  A    between atoms: _268  and  _270
REMARK  112  A    between atoms: _270  and  _271
REMARK  113  A    between atoms: _270  and  _273
REMARK  114  A    between atoms: _273  and  _274
REMARK  115  A    between atoms: _277  and  _279
REMARK  116  A    between atoms: _279  and  _280
REMARK  117  A    between atoms: _279  and  _282
REMARK  118  A    between atoms: _282  and  _283
REMARK  119  A    between atoms: _286  and  _288
REMARK  120  A    between atoms: _288  and  _289
REMARK  121  A    between atoms: _288  and  _291
REMARK  122  A    between atoms: _291  and  _292
REMARK  123  A    between atoms: _295  and  _297
REMARK  124  A    between atoms: _297  and  _298
REMARK  125  A    between atoms: _297  and  _300
REMARK  126  A    between atoms: _300  and  _301
REMARK  127  A    between atoms: _304  and  _306
REMARK  128  A    between atoms: _306  and  _307
REMARK  129  A    between atoms: _306  and  _309
REMARK  130  A    between atoms: _309  and  _310
REMARK  131  A    between atoms: _312  and  _314
REMARK  132  A    between atoms: _314  and  _315
REMARK  133  A    between atoms: _314  and  _317
REMARK  134  A    between atoms: _317  and  _318
REMARK  135  A    between atoms: _321  and  _323
REMARK  136  A    between atoms: _323  and  _324
REMARK  137  A    between atoms: _323  and  _326
REMARK  138  A    between atoms: _326  and  _327
REMARK  139  A    between atoms: _332  and  _333
REMARK  140  A    between atoms: _335  and  _337
REMARK  141  A    between atoms: _337  and  _338
REMARK  142  A    between atoms: _337  and  _340
REMARK  143  A    between atoms: _343  and  _345
REMARK  144  A    between atoms: _345  and  _346
REMARK  145  A    between atoms: _349  and  _351
REMARK  146  A    between atoms: _351  and  _352
REMARK  147  A    between atoms: _351  and  _354
REMARK  148  A    between atoms: _354  and  _355
REMARK  149  A    between atoms: _355  and  _356
REMARK  150  A    between atoms: _356  and  _357
REMARK  151  A    between atoms: _366  and  _368
REMARK  152  A    between atoms: _368  and  _369
REMARK  153  A    between atoms: _368  and  _371
REMARK  154  A    between atoms: _371  and  _372
REMARK  155  A    between atoms: _372  and  _373
REMARK  156  A    between atoms: _373  and  _374
REMARK  157  A    between atoms: _383  and  _385
REMARK  158  A    between atoms: _385  and  _386
REMARK  159  A    between atoms: _385  and  _388
REMARK  160  A    between atoms: _388  and  _389
REMARK  161  A    between atoms: _392  and  _394
REMARK  162  A    between atoms: _394  and  _395
REMARK  163  A    between atoms: _397  and  _399
REMARK  164  A    between atoms: _399  and  _400
REMARK  165  A    between atoms: _399  and  _402
REMARK  166  A    between atoms: _402  and  _403
REMARK  167  A    between atoms: _403  and  _404
REMARK  168  A    between atoms: _407  and  _409
REMARK  169  A    between atoms: _409  and  _410
REMARK  170  A    between atoms: _409  and  _412
REMARK  171  A    between atoms: _412  and  _413
REMARK  172  A    between atoms: _415  and  _417
REMARK  173  A    between atoms: _417  and  _418
REMARK  174  A    between atoms: _417  and  _420
REMARK  175  A    between atoms: _420  and  _421
REMARK  176  A    between atoms: _424  and  _426
REMARK  177  A    between atoms: _426  and  _427
REMARK  178  A    between atoms: _426  and  _429
REMARK  179  A    between atoms: _429  and  _430
REMARK  180  A    between atoms: _430  and  _431
REMARK  181  A    between atoms: _436  and  _438
REMARK  182  A    between atoms: _438  and  _439
REMARK  183  A    between atoms: _438  and  _441
REMARK  184  A    between atoms: _441  and  _442
REMARK  185  A    between atoms: _445  and  _447
REMARK  186  A    between atoms: _447  and  _448
REMARK  187  A    between atoms: _447  and  _450
REMARK  188  A    between atoms: _450  and  _451
REMARK  189  A    between atoms: _454  and  _456
REMARK  190  A    between atoms: _456  and  _457
REMARK  191  A    between atoms: _456  and  _459
REMARK  192  A    between atoms: _459  and  _460
REMARK  193  A    between atoms: _460  and  _461
REMARK  194  A    between atoms: _460  and  _462
REMARK  195  A    between atoms: _461  and  MG_705
REMARK  196  A    between atoms: _465  and  _467
REMARK  197  A    between atoms: _467  and  _468
REMARK  198  A    between atoms: _467  and  _470
REMARK  199  A    between atoms: _470  and  _471
REMARK  200  A    between atoms: _474  and  _476
REMARK  201  A    between atoms: _476  and  _477
REMARK  202  A    between atoms: _476  and  _479
REMARK  203  A    between atoms: _479  and  _480
REMARK  204  A    between atoms: _480  and  _481
REMARK  205  A    between atoms: _481  and  _482
REMARK  206  A    between atoms: _491  and  _493
REMARK  207  A    between atoms: _493  and  _494
REMARK  208  A    between atoms: _493  and  _496
REMARK  209  A    between atoms: _496  and  _497
REMARK  210  A    between atoms: _497  and  _499
REMARK  211  A    between atoms: _499  and  MG_705
REMARK  212  A    between atoms: _500  and  _502
REMARK  213  A    between atoms: _502  and  _503
REMARK  214  A    between atoms: _502  and  _505
REMARK  215  A    between atoms: _505  and  _506
REMARK  216  A    between atoms: _506  and  _507
REMARK  217  A    between atoms: _510  and  _512
REMARK  218  A    between atoms: _512  and  _513
REMARK  219  A    between atoms: _512  and  _515
REMARK  220  A    between atoms: _515  and  _516
REMARK  221  A    between atoms: _519  and  _521
REMARK  222  A    between atoms: _521  and  _522
REMARK  223  A    between atoms: _521  and  _524
REMARK  224  A    between atoms: _524  and  _525
REMARK  225  A    between atoms: _530  and  _532
REMARK  226  A    between atoms: _532  and  _533
REMARK  227  A    between atoms: _532  and  _535
REMARK  228  A    between atoms: _535  and  _536
REMARK  229  A    between atoms: _536  and  _537
REMARK  230  A    between atoms: _537  and  _538
REMARK  231  A    between atoms: _547  and  _549
REMARK  232  A    between atoms: _549  and  _550
REMARK  233  A    between atoms: _549  and  _552
REMARK  234  A    between atoms: _552  and  _553
REMARK  235  A    between atoms: _558  and  _559
REMARK  236  A    between atoms: _561  and  _563
REMARK  237  A    between atoms: _563  and  _564
REMARK  238  A    between atoms: _563  and  _566
REMARK  239  A    between atoms: _569  and  _571
REMARK  240  A    between atoms: _571  and  _572
REMARK  241  A    between atoms: _571  and  _574
REMARK  242  A    between atoms: _574  and  _575
REMARK  243  A    between atoms: _575  and  _576
REMARK  244  A    between atoms: _578  and  _580
REMARK  245  A    between atoms: _580  and  _581
REMARK  246  A    between atoms: _580  and  _583
REMARK  247  A    between atoms: _583  and  _584
REMARK  248  A    between atoms: _587  and  _589
REMARK  249  A    between atoms: _589  and  _590
REMARK  250  A    between atoms: _589  and  _592
REMARK  251  A    between atoms: _595  and  _597
REMARK  252  A    between atoms: _597  and  _598
REMARK  253  A    between atoms: _597  and  _600
REMARK  254  A    between atoms: _600  and  _601
REMARK  255  A    between atoms: _607  and  _609
REMARK  256  A    between atoms: _609  and  _610
REMARK  257  A    between atoms: _613  and  _615
REMARK  258  A    between atoms: _615  and  _616
REMARK  259  A    between atoms: _615  and  _618
REMARK  260  A    between atoms: _618  and  _619
REMARK  261  A    between atoms: _619  and  _620
REMARK  262  A    between atoms: _625  and  _627
REMARK  263  A    between atoms: _627  and  _628
REMARK  264  A    between atoms: _627  and  _630
REMARK  265  A    between atoms: _630  and  _631
REMARK  266  A    between atoms: _634  and  _636
REMARK  267  A    between atoms: _636  and  _637
REMARK  268  A    between atoms: _636  and  _639
REMARK  269  A    between atoms: _639  and  _640
REMARK  270  A    between atoms: _643  and  _645
REMARK  271  A    between atoms: _645  and  _646
REMARK  272  A    between atoms: _645  and  _648
REMARK  273  A    between atoms: _648  and  _649
REMARK  274  A    between atoms: _649  and  _650
REMARK  275  A    between atoms: _653  and  _655
REMARK  276  A    between atoms: _655  and  _656
REMARK  277  A    between atoms: _659  and  _661
REMARK  278  A    between atoms: _661  and  _662
REMARK  279  A    between atoms: _665  and  _667
REMARK  280  A    between atoms: _667  and  _668
REMARK  281  A    between atoms: _667  and  _670
REMARK  282  A    between atoms: _670  and  _671
REMARK  283  A    between atoms: _676  and  _677
REMARK  284  A    between atoms: _679  and  _681
REMARK  285  A    between atoms: _681  and  _682
REMARK  286  A    between atoms: _681  and  _684
REMARK  287  A    between atoms: _684  and  _685
REMARK  288  A    between atoms: _688  and  _690
REMARK  289  A    between atoms: _690  and  _691
REMARK  290  A    between atoms: _690  and  _693
REMARK  291  A    between atoms: _693  and  _694
REMARK  292  A    between atoms: _694  and  _695
REMARK  293  A    between atoms: _695  and  _696
REMARK                            x       y       z     vdW  Elec       q    Type
REMARK                         _______ _______ _______ _____ _____    ______ ____
ROOT
ATOM      1  NE  ARG A   1      25.078  43.347  28.273  0.00  0.00    -0.265 N 
ATOM      2  HE  ARG A   1      24.156  43.487  28.733  0.00  0.00    +0.259 HD
ATOM      3  CZ  ARG A   1      25.578  42.110  28.241  0.00  0.00    +0.342 C 
ATOM      4  NH2 ARG A   1      24.907  41.105  28.784  0.00  0.00    -0.292 N 
ATOM      5 HH21 ARG A   1      23.987  41.279  29.237  0.00  0.00    +0.255 HD
ATOM      6 HH22 ARG A   1      25.300  40.143  28.757  0.00  0.00    +0.255 HD
ATOM      7  NH1 ARG A   1      26.752  41.874  27.666  0.00  0.00    -0.292 N 
ATOM      8 HH11 ARG A   1      27.136  40.908  27.645  0.00  0.00    +0.255 HD
ATOM      9 HH12 ARG A   1      27.287  42.656  27.237  0.00  0.00    +0.255 HD
ENDROOT
BRANCH   1  10
ATOM     10  CD  ARG A   1      25.745  44.523  27.702  0.00  0.00    +0.174 C 
BRANCH  10  11
ATOM     11  CG  ARG A   1      26.807  45.112  28.649  0.00  0.00    +0.045 C 
BRANCH  11  12
ATOM     12  CB  ARG A   1      27.484  46.321  28.009  0.00  0.00    +0.029 C 
BRANCH  12  13
ATOM     13  CA  ARG A   1      28.473  46.044  26.839  0.00  0.00    +0.133 C 
BRANCH  13  14
ATOM     14  N   ARG A   1      29.687  45.365  27.292  0.00  0.00    -0.239 NA
ATOM     15  H   ARG A   1      30.378  45.870  27.883  0.00  0.00    +0.142 HD
ENDBRANCH  13  14
BRANCH  13  16
ATOM     16  C   ARG A   1      28.849  47.385  26.267  0.00  0.00    +0.224 C 
ATOM     17  O   ARG A   1      29.603  48.127  26.883  0.00  0.00    -0.287 OA
ENDBRANCH  13  16
ENDBRANCH  12  13
ENDBRANCH  11  12
ENDBRANCH  10  11
ENDBRANCH   1  10
TORSDOF 6
REMARK  Name = ../refined-set-2016/2zcr/2zcr_pocket.pdb
REMARK  293 active torsions:
REMARK  status: ('A' for Active; 'I' for Inactive)
REMARK    1  A    between atoms: _1  and  _3
REMARK    2  A    between atoms: _3  and  _4
REMARK    3  A    between atoms: _3  and  _6
REMARK    4  A    between atoms: _6  and  _7
REMARK    5  A    between atoms: _7  and  _8
REMARK    6  A    between atoms: _10  and  _12
REMARK    7  A    between atoms: _12  and  _13
REMARK    8  A    between atoms: _12  and  _15
REMARK    9  A    between atoms: _15  and  _16
REMARK   10  A    between atoms: _21  and  _23
REMARK   11  A    between atoms: _23  and  _24
REMARK   12  A    between atoms: _23  and  _26
REMARK   13  A    between atoms: _26  and  _27
REMARK   14  A    between atoms: _29  and  _31
REMARK   15  A    between atoms: _31  and  _32
REMARK   16  A    between atoms: _31  and  _34
REMARK   17  A    between atoms: _34  and  _35
REMARK   18  A    between atoms: _35  and  _36
REMARK   19  A    between atoms: _36  and  _37
REMARK   20  A    between atoms: _37  and  _38
REMARK   21  A    between atoms: _42  and  _44
REMARK   22  A    between atoms: _44  and  _45
REMARK   23  A    between atoms: _44  and  _47
REMARK   24  A    between atoms: _47  and  _48
REMARK   25  A    between atoms: _50  and  _52
REMARK   26  A    between atoms: _52  and  _53
REMARK   27  A    between atoms: _52  and  _55
REMARK   28  A    between atoms: _55  and  _56
REMARK   29  A    between atoms: _62  and  _64
REMARK   30  A    between atoms: _64  and  _65
REMARK   31  A    between atoms: _68  and  _70
REMARK   32  A    between atoms: _70  and  _71
REMARK   33  A    between atoms: _70  and  _73
REMARK   34  A    between atoms: _73  and  _74
REMARK   35  A    between atoms: _80  and  _82
REMARK   36  A    between atoms: _82  and  _83
REMARK   37  A    between atoms: _82  and  _85
REMARK   38  A    between atoms: _85  and  _86
REMARK   39  A    between atoms: _89  and  _91
REMARK   40  A    between atoms: _91  and  _92
REMARK   41  A    between atoms: _91  and  _94
REMARK   42  A    between atoms: _97  and  _99
REMARK   43  A    between atoms: _99  and  _100
REMARK   44  A    between atoms: _99  and  _102
REMARK   45  A    between atoms: _102  and  _103
REMARK   46  A    between atoms: _106  and  _108
REMARK   47  A    between atoms: _108  and  _109
REMARK   48  A    between atoms: _108  and  _111
REMARK   49  A    between atoms: _111  and  _112
REMARK   50  A    between atoms: _117  and  _118
REMARK   51  A    between atoms: _120  and  _122
REMARK   52  A    between atoms: _122  and  _123
REMARK   53  A    between atoms: _122  and  _125
REMARK   54  A    between atoms: _127  and  _129
REMARK   55  A    between atoms: _129  and  _130
REMARK   56  A    between atoms: _129  and  _132
REMARK   57  A    between atoms: _132  and  _133
REMARK   58  A    between atoms: _133  and  _134
REMARK   59  A    between atoms: _134  and  _135
REMARK   60  A    between atoms: _144  and  _146
REMARK   61  A    between atoms: _146  and  _147
REMARK   62  A    between atoms: _146  and  _149
REMARK   63  A    between atoms: _149  and  _150
REMARK   64  A    between atoms: _153  and  _155
REMARK   65  A    between atoms: _155  and  _156
REMARK   66  A    between atoms: _155  and  _158
REMARK   67  A    between atoms: _158  and  _159
REMARK   68  A    between atoms: _162  and  _164
REMARK   69  A    between atoms: _164  and  _165
REMARK   70  A    between atoms: _164  and  _167
REMARK   71  A    between atoms: _167  and  _168
REMARK   72  A    between atoms: _171  and  _173
REMARK   73  A    between atoms: _173  and  _174
REMARK   74  A    between atoms: _173  and  _176
REMARK   75  A    between atoms: _179  and  _181
REMARK   76  A    between atoms: _181  and  _182
REMARK   77  A    between atoms: _181  and  _184
REMARK   78  A    between atoms: _184  and  _185
REMARK   79  A    between atoms: _188  and  _190
REMARK   80  A    between atoms: _190  and  _191
REMARK   81  A    between atoms: _190  and  _193
REMARK   82  A    between atoms: _193  and  _194
REMARK   83  A    between atoms: _199  and  _200
REMARK   84  A    between atoms: _202  and  _204
REMARK   85  A    between atoms: _204  and  _205
REMARK   86  A    between atoms: _204  and  _207
REMARK   87  A    between atoms: _209  and  _211
REMARK   88  A    between atoms: _211  and  _212
REMARK   89  A    between atoms: _211  and  _214
REMARK   90  A    between atoms: _217  and  _219
REMARK   91  A    between atoms: _219  and  _220
REMARK   92  A    between atoms: _223  and  _225
REMARK   93  A    between atoms: _225  and  _226
REMARK   94  A    between atoms: _228  and  _230
REMARK   95  A    between atoms: _230  and  _231
REMARK   96  A    between atoms: _230  and  _233
REMARK   97  A    between atoms: _233  and  _234
REMARK   98  A    between atoms: _237  and  _239
REMARK   99  A    between atoms: _239  and  _240
REMARK  100  A    between atoms: _239  and  _242
REMARK  101  A    between atoms: _245  and  _247
REMARK  102  A    between atoms: _247  and  _248
REMARK  103  A    between atoms: _250  and  _252
REMARK  104  A    between atoms: _252  and  _253
REMARK  105  A    between atoms: _252  and  _255
REMARK  106  A    between atoms: _255  and  _256
REMARK  107  A    between atoms: _256  and  _257
REMARK  108  A    between atoms: _260  and  _262
REMARK  109  A    between atoms: _262  and  _263
REMARK  110  A    between atoms: _262  and  _265
REMARK  111  A    between atoms: _268  and  _270
REMARK  112  A    between atoms: _270  and  _271
REMARK  113  A    between atoms: _270  and  _273
REMARK  114  A    between atoms: _273  and  _274
REMARK  115  A    between atoms: _277  and  _279
REMARK  116  A    between atoms: _279  and  _280
REMARK  117  A    between atoms: _279  and  _282
REMARK  118  A    between atoms: _282  and  _283
REMARK  119  A    between atoms: _286  and  _288
REMARK  120  A    between atoms: _288  and  _289
REMARK  121  A    between atoms: _288  and  _291
REMARK  122  A    between atoms: _291  and  _292
REMARK  123  A    between atoms: _295  and  _297
REMARK  124  A    between atoms: _297  and  _298
REMARK  125  A    between atoms: _297  and  _300
REMARK  126  A    between atoms: _300  and  _301
REMARK  127  A    between atoms: _304  and  _306
REMARK  128  A    between atoms: _306  and  _307
REMARK  129  A    between atoms: _306  and  _309
REMARK  130  A    between atoms: _309  and  _310
REMARK  131  A    between atoms: _312  and  _314
REMARK  132  A    between atoms: _314  and  _315
REMARK  133  A    between atoms: _314  and  _317
REMARK  134  A    between atoms: _317  and  _318
REMARK  135  A    between atoms: _321  and  _323
REMARK  136  A    between atoms: _323  and  _324
REMARK  137  A    between atoms: _323  and  _326
REMARK  138  A    between atoms: _326  and  _327
REMARK  139  A    between atoms: _332  and  _333
REMARK  140  A    between atoms: _335  and  _337
REMARK  141  A    between atoms: _337  and  _338
REMARK  142  A    between atoms: _337  and  _340
REMARK  143  A    between atoms: _343  and  _345
REMARK  144  A    between atoms: _345  and  _346
REMARK  145  A    between atoms: _349  and  _351
REMARK  146  A    between atoms: _351  and  _352
REMARK  147  A    between atoms: _351  and  _354
REMARK  148  A    between atoms: _354  and  _355
REMARK  149  A    between atoms: _355  and  _356
REMARK  150  A    between atoms: _356  and  _357
REMARK  151  A    between atoms: _366  and  _368
REMARK  152  A    between atoms: _368  and  _369
REMARK  153  A    between atoms: _368  and  _371
REMARK  154  A    between atoms: _371  and  _372
REMARK  155  A    between atoms: _372  and  _373
REMARK  156  A    between atoms: _373  and  _374
REMARK  157  A    between atoms: _383  and  _385
REMARK  158  A    between atoms: _385  and  _386
REMARK  159  A    between atoms: _385  and  _388
REMARK  160  A    between atoms: _388  and  _389
REMARK  161  A    between atoms: _392  and  _394
REMARK  162  A    between atoms: _394  and  _395
REMARK  163  A    between atoms: _397  and  _399
REMARK  164  A    between atoms: _399  and  _400
REMARK  165  A    between atoms: _399  and  _402
REMARK  166  A    between atoms: _402  and  _403
REMARK  167  A    between atoms: _403  and  _404
REMARK  168  A    between atoms: _407  and  _409
REMARK  169  A    between atoms: _409  and  _410
REMARK  170  A    between atoms: _409  and  _412
REMARK  171  A    between atoms: _412  and  _413
REMARK  172  A    between atoms: _415  and  _417
REMARK  173  A    between atoms: _417  and  _418
REMARK  174  A    between atoms: _417  and  _420
REMARK  175  A    between atoms: _420  and  _421
REMARK  176  A    between atoms: _424  and  _426
REMARK  177  A    between atoms: _426  and  _427
REMARK  178  A    between atoms: _426  and  _429
REMARK  179  A    between atoms: _429  and  _430
REMARK  180  A    between atoms: _430  and  _431
REMARK  181  A    between atoms: _436  and  _438
REMARK  182  A    between atoms: _438  and  _439
REMARK  183  A    between atoms: _438  and  _441
REMARK  184  A    between atoms: _441  and  _442
REMARK  185  A    between atoms: _445  and  _447
REMARK  186  A    between atoms: _447  and  _448
REMARK  187  A    between atoms: _447  and  _450
REMARK  188  A    between atoms: _450  and  _451
REMARK  189  A    between atoms: _454  and  _456
REMARK  190  A    between atoms: _456  and  _457
REMARK  191  A    between atoms: _456  and  _459
REMARK  192  A    between atoms: _459  and  _460
REMARK  193  A    between atoms: _460  and  _461
REMARK  194  A    between atoms: _460  and  _462
REMARK  195  A    between atoms: _461  and  MG_705
REMARK  196  A    between atoms: _465  and  _467
REMARK  197  A    between atoms: _467  and  _468
REMARK  198  A    between atoms: _467  and  _470
REMARK  199  A    between atoms: _470  and  _471
REMARK  200  A    between atoms: _474  and  _476
REMARK  201  A    between atoms: _476  and  _477
REMARK  202  A    between atoms: _476  and  _479
REMARK  203  A    between atoms: _479  and  _480
REMARK  204  A    between atoms: _480  and  _481
REMARK  205  A    between atoms: _481  and  _482
REMARK  206  A    between atoms: _491  and  _493
REMARK  207  A    between atoms: _493  and  _494
REMARK  208  A    between atoms: _493  and  _496
REMARK  209  A    between atoms: _496  and  _497
REMARK  210  A    between atoms: _497  and  _499
REMARK  211  A    between atoms: _499  and  MG_705
REMARK  212  A    between atoms: _500  and  _502
REMARK  213  A    between atoms: _502  and  _503
REMARK  214  A    between atoms: _502  and  _505
REMARK  215  A    between atoms: _505  and  _506
REMARK  216  A    between atoms: _506  and  _507
REMARK  217  A    between atoms: _510  and  _512
REMARK  218  A    between atoms: _512  and  _513
REMARK  219  A    between atoms: _512  and  _515
REMARK  220  A    between atoms: _515  and  _516
REMARK  221  A    between atoms: _519  and  _521
REMARK  222  A    between atoms: _521  and  _522
REMARK  223  A    between atoms: _521  and  _524
REMARK  224  A    between atoms: _524  and  _525
REMARK  225  A    between atoms: _530  and  _532
REMARK  226  A    between atoms: _532  and  _533
REMARK  227  A    between atoms: _532  and  _535
REMARK  228  A    between atoms: _535  and  _536
REMARK  229  A    between atoms: _536  and  _537
REMARK  230  A    between atoms: _537  and  _538
REMARK  231  A    between atoms: _547  and  _549
REMARK  232  A    between atoms: _549  and  _550
REMARK  233  A    between atoms: _549  and  _552
REMARK  234  A    between atoms: _552  and  _553
REMARK  235  A    between atoms: _558  and  _559
REMARK  236  A    between atoms: _561  and  _563
REMARK  237  A    between atoms: _563  and  _564
REMARK  238  A    between atoms: _563  and  _566
REMARK  239  A    between atoms: _569  and  _571
REMARK  240  A    between atoms: _571  and  _572
REMARK  241  A    between atoms: _571  and  _574
REMARK  242  A    between atoms: _574  and  _575
REMARK  243  A    between atoms: _575  and  _576
REMARK  244  A    between atoms: _578  and  _580
REMARK  245  A    between atoms: _580  and  _581
REMARK  246  A    between atoms: _580  and  _583
REMARK  247  A    between atoms: _583  and  _584
REMARK  248  A    between atoms: _587  and  _589
REMARK  249  A    between atoms: _589  and  _590
REMARK  250  A    between atoms: _589  and  _592
REMARK  251  A    between atoms: _595  and  _597
REMARK  252  A    between atoms: _597  and  _598
REMARK  253  A    between atoms: _597  and  _600
REMARK  254  A    between atoms: _600  and  _601
REMARK  255  A    between atoms: _607  and  _609
REMARK  256  A    between atoms: _609  and  _610
REMARK  257  A    between atoms: _613  and  _615
REMARK  258  A    between atoms: _615  and  _616
REMARK  259  A    between atoms: _615  and  _618
REMARK  260  A    between atoms: _618  and  _619
REMARK  261  A    between atoms: _619  and  _620
REMARK  262  A    between atoms: _625  and  _627
REMARK  263  A    between atoms: _627  and  _628
REMARK  264  A    between atoms: _627  and  _630
REMARK  265  A    between atoms: _630  and  _631
REMARK  266  A    between atoms: _634  and  _636
REMARK  267  A    between atoms: _636  and  _637
REMARK  268  A    between atoms: _636  and  _639
REMARK  269  A    between atoms: _639  and  _640
REMARK  270  A    between atoms: _643  and  _645
REMARK  271  A    between atoms: _645  and  _646
REMARK  272  A    between atoms: _645  and  _648
REMARK  273  A    between atoms: _648  and  _649
REMARK  274  A    between atoms: _649  and  _650
REMARK  275  A    between atoms: _653  and  _655
REMARK  276  A    between atoms: _655  and  _656
REMARK  277  A    between atoms: _659  and  _661
REMARK  278  A    between atoms: _661  and  _662
REMARK  279  A    between atoms: _665  and  _667
REMARK  280  A    between atoms: _667  and  _668
REMARK  281  A    between atoms: _667  and  _670
REMARK  282  A    between atoms: _670  and  _671
REMARK  283  A    between atoms: _676  and  _677
REMARK  284  A    between atoms: _679  and  _681
REMARK  285  A    between atoms: _681  and  _682
REMARK  286  A    between atoms: _681  and  _684
REMARK  287  A    between atoms: _684  and  _685
REMARK  288  A    between atoms: _688  and  _690
REMARK  289  A    between atoms: _690  and  _691
REMARK  290  A    between atoms: _690  and  _693
REMARK  291  A    between atoms: _693  and  _694
REMARK  292  A    between atoms: _694  and  _695
REMARK  293  A    between atoms: _695  and  _696
REMARK                            x       y       z     vdW  Elec       q    Type
REMARK                         _______ _______ _______ _____ _____    ______ ____
ROOT
ATOM      1  CG  TYR A   1      24.534  50.589  26.775  0.00  0.00    -0.020 A 
ATOM      2  CD2 TYR A   1      25.396  50.499  27.840  0.00  0.00    -0.001 A 
ATOM      3  CE2 TYR A   1      25.248  49.527  28.789  0.00  0.00    +0.036 A 
ATOM      4  CZ  TYR A   1      24.213  48.591  28.690  0.00  0.00    +0.134 A 
ATOM      5  CE1 TYR A   1      23.316  48.642  27.635  0.00  0.00    +0.036 A 
ATOM      6  CD1 TYR A   1      23.481  49.646  26.676  0.00  0.00    -0.001 A 
ENDROOT
BRANCH   4   7
ATOM      7  OH  TYR A   1      24.139  47.614  29.661  0.00  0.00    -0.506 OA
ATOM      8  HH  TYR A   1      23.368  47.022  29.474  0.00  0.00    +0.292 HD
ENDBRANCH   4   7
BRANCH   1   9
ATOM      9  CB  TYR A   1      24.729  51.660  25.727  0.00  0.00    +0.051 C 
BRANCH   9  10
ATOM     10  CA  TYR A   1      25.276  51.081  24.425  0.00  0.00    +0.137 C 
BRANCH  10  11
ATOM     11  N   TYR A   1      26.653  50.592  24.630  0.00  0.00    -0.239 NA
ATOM     12  H   TYR A   1      27.320  51.184  25.166  0.00  0.00    +0.142 HD
ENDBRANCH  10  11
BRANCH  10  13
ATOM     13  C   TYR A   1      25.117  52.095  23.317  0.00  0.00    +0.224 C 
ATOM     14  O   TYR A   1      24.012  52.308  22.840  0.00  0.00    -0.287 OA
ENDBRANCH  10  13
ENDBRANCH   9  10
ENDBRANCH   1   9
TORSDOF 5
REMARK  Name = ../refined-set-2016/2zcr/2zcr_pocket.pdb
REMARK  293 active torsions:
REMARK  status: ('A' for Active; 'I' for Inactive)
REMARK    1  A    between atoms: _1  and  _3
REMARK    2  A    between atoms: _3  and  _4
REMARK    3  A    between atoms: _3  and  _6
REMARK    4  A    between atoms: _6  and  _7
REMARK    5  A    between atoms: _7  and  _8
REMARK    6  A    between atoms: _10  and  _12
REMARK    7  A    between atoms: _12  and  _13
REMARK    8  A    between atoms: _12  and  _15
REMARK    9  A    between atoms: _15  and  _16
REMARK   10  A    between atoms: _21  and  _23
REMARK   11  A    between atoms: _23  and  _24
REMARK   12  A    between atoms: _23  and  _26
REMARK   13  A    between atoms: _26  and  _27
REMARK   14  A    between atoms: _29  and  _31
REMARK   15  A    between atoms: _31  and  _32
REMARK   16  A    between atoms: _31  and  _34
REMARK   17  A    between atoms: _34  and  _35
REMARK   18  A    between atoms: _35  and  _36
REMARK   19  A    between atoms: _36  and  _37
REMARK   20  A    between atoms: _37  and  _38
REMARK   21  A    between atoms: _42  and  _44
REMARK   22  A    between atoms: _44  and  _45
REMARK   23  A    between atoms: _44  and  _47
REMARK   24  A    between atoms: _47  and  _48
REMARK   25  A    between atoms: _50  and  _52
REMARK   26  A    between atoms: _52  and  _53
REMARK   27  A    between atoms: _52  and  _55
REMARK   28  A    between atoms: _55  and  _56
REMARK   29  A    between atoms: _62  and  _64
REMARK   30  A    between atoms: _64  and  _65
REMARK   31  A    between atoms: _68  and  _70
REMARK   32  A    between atoms: _70  and  _71
REMARK   33  A    between atoms: _70  and  _73
REMARK   34  A    between atoms: _73  and  _74
REMARK   35  A    between atoms: _80  and  _82
REMARK   36  A    between atoms: _82  and  _83
REMARK   37  A    between atoms: _82  and  _85
REMARK   38  A    between atoms: _85  and  _86
REMARK   39  A    between atoms: _89  and  _91
REMARK   40  A    between atoms: _91  and  _92
REMARK   41  A    between atoms: _91  and  _94
REMARK   42  A    between atoms: _97  and  _99
REMARK   43  A    between atoms: _99  and  _100
REMARK   44  A    between atoms: _99  and  _102
REMARK   45  A    between atoms: _102  and  _103
REMARK   46  A    between atoms: _106  and  _108
REMARK   47  A    between atoms: _108  and  _109
REMARK   48  A    between atoms: _108  and  _111
REMARK   49  A    between atoms: _111  and  _112
REMARK   50  A    between atoms: _117  and  _118
REMARK   51  A    between atoms: _120  and  _122
REMARK   52  A    between atoms: _122  and  _123
REMARK   53  A    between atoms: _122  and  _125
REMARK   54  A    between atoms: _127  and  _129
REMARK   55  A    between atoms: _129  and  _130
REMARK   56  A    between atoms: _129  and  _132
REMARK   57  A    between atoms: _132  and  _133
REMARK   58  A    between atoms: _133  and  _134
REMARK   59  A    between atoms: _134  and  _135
REMARK   60  A    between atoms: _144  and  _146
REMARK   61  A    between atoms: _146  and  _147
REMARK   62  A    between atoms: _146  and  _149
REMARK   63  A    between atoms: _149  and  _150
REMARK   64  A    between atoms: _153  and  _155
REMARK   65  A    between atoms: _155  and  _156
REMARK   66  A    between atoms: _155  and  _158
REMARK   67  A    between atoms: _158  and  _159
REMARK   68  A    between atoms: _162  and  _164
REMARK   69  A    between atoms: _164  and  _165
REMARK   70  A    between atoms: _164  and  _167
REMARK   71  A    between atoms: _167  and  _168
REMARK   72  A    between atoms: _171  and  _173
REMARK   73  A    between atoms: _173  and  _174
REMARK   74  A    between atoms: _173  and  _176
REMARK   75  A    between atoms: _179  and  _181
REMARK   76  A    between atoms: _181  and  _182
REMARK   77  A    between atoms: _181  and  _184
REMARK   78  A    between atoms: _184  and  _185
REMARK   79  A    between atoms: _188  and  _190
REMARK   80  A    between atoms: _190  and  _191
REMARK   81  A    between atoms: _190  and  _193
REMARK   82  A    between atoms: _193  and  _194
REMARK   83  A    between atoms: _199  and  _200
REMARK   84  A    between atoms: _202  and  _204
REMARK   85  A    between atoms: _204  and  _205
REMARK   86  A    between atoms: _204  and  _207
REMARK   87  A    between atoms: _209  and  _211
REMARK   88  A    between atoms: _211  and  _212
REMARK   89  A    between atoms: _211  and  _214
REMARK   90  A    between atoms: _217  and  _219
REMARK   91  A    between atoms: _219  and  _220
REMARK   92  A    between atoms: _223  and  _225
REMARK   93  A    between atoms: _225  and  _226
REMARK   94  A    between atoms: _228  and  _230
REMARK   95  A    between atoms: _230  and  _231
REMARK   96  A    between atoms: _230  and  _233
REMARK   97  A    between atoms: _233  and  _234
REMARK   98  A    between atoms: _237  and  _239
REMARK   99  A    between atoms: _239  and  _240
REMARK  100  A    between atoms: _239  and  _242
REMARK  101  A    between atoms: _245  and  _247
REMARK  102  A    between atoms: _247  and  _248
REMARK  103  A    between atoms: _250  and  _252
REMARK  104  A    between atoms: _252  and  _253
REMARK  105  A    between atoms: _252  and  _255
REMARK  106  A    between atoms: _255  and  _256
REMARK  107  A    between atoms: _256  and  _257
REMARK  108  A    between atoms: _260  and  _262
REMARK  109  A    between atoms: _262  and  _263
REMARK  110  A    between atoms: _262  and  _265
REMARK  111  A    between atoms: _268  and  _270
REMARK  112  A    between atoms: _270  and  _271
REMARK  113  A    between atoms: _270  and  _273
REMARK  114  A    between atoms: _273  and  _274
REMARK  115  A    between atoms: _277  and  _279
REMARK  116  A    between atoms: _279  and  _280
REMARK  117  A    between atoms: _279  and  _282
REMARK  118  A    between atoms: _282  and  _283
REMARK  119  A    between atoms: _286  and  _288
REMARK  120  A    between atoms: _288  and  _289
REMARK  121  A    between atoms: _288  and  _291
REMARK  122  A    between atoms: _291  and  _292
REMARK  123  A    between atoms: _295  and  _297
REMARK  124  A    between atoms: _297  and  _298
REMARK  125  A    between atoms: _297  and  _300
REMARK  126  A    between atoms: _300  and  _301
REMARK  127  A    between atoms: _304  and  _306
REMARK  128  A    between atoms: _306  and  _307
REMARK  129  A    between atoms: _306  and  _309
REMARK  130  A    between atoms: _309  and  _310
REMARK  131  A    between atoms: _312  and  _314
REMARK  132  A    between atoms: _314  and  _315
REMARK  133  A    between atoms: _314  and  _317
REMARK  134  A    between atoms: _317  and  _318
REMARK  135  A    between atoms: _321  and  _323
REMARK  136  A    between atoms: _323  and  _324
REMARK  137  A    between atoms: _323  and  _326
REMARK  138  A    between atoms: _326  and  _327
REMARK  139  A    between atoms: _332  and  _333
REMARK  140  A    between atoms: _335  and  _337
REMARK  141  A    between atoms: _337  and  _338
REMARK  142  A    between atoms: _337  and  _340
REMARK  143  A    between atoms: _343  and  _345
REMARK  144  A    between atoms: _345  and  _346
REMARK  145  A    between atoms: _349  and  _351
REMARK  146  A    between atoms: _351  and  _352
REMARK  147  A    between atoms: _351  and  _354
REMARK  148  A    between atoms: _354  and  _355
REMARK  149  A    between atoms: _355  and  _356
REMARK  150  A    between atoms: _356  and  _357
REMARK  151  A    between atoms: _366  and  _368
REMARK  152  A    between atoms: _368  and  _369
REMARK  153  A    between atoms: _368  and  _371
REMARK  154  A    between atoms: _371  and  _372
REMARK  155  A    between atoms: _372  and  _373
REMARK  156  A    between atoms: _373  and  _374
REMARK  157  A    between atoms: _383  and  _385
REMARK  158  A    between atoms: _385  and  _386
REMARK  159  A    between atoms: _385  and  _388
REMARK  160  A    between atoms: _388  and  _389
REMARK  161  A    between atoms: _392  and  _394
REMARK  162  A    between atoms: _394  and  _395
REMARK  163  A    between atoms: _397  and  _399
REMARK  164  A    between atoms: _399  and  _400
REMARK  165  A    between atoms: _399  and  _402
REMARK  166  A    between atoms: _402  and  _403
REMARK  167  A    between atoms: _403  and  _404
REMARK  168  A    between atoms: _407  and  _409
REMARK  169  A    between atoms: _409  and  _410
REMARK  170  A    between atoms: _409  and  _412
REMARK  171  A    between atoms: _412  and  _413
REMARK  172  A    between atoms: _415  and  _417
REMARK  173  A    between atoms: _417  and  _418
REMARK  174  A    between atoms: _417  and  _420
REMARK  175  A    between atoms: _420  and  _421
REMARK  176  A    between atoms: _424  and  _426
REMARK  177  A    between atoms: _426  and  _427
REMARK  178  A    between atoms: _426  and  _429
REMARK  179  A    between atoms: _429  and  _430
REMARK  180  A    between atoms: _430  and  _431
REMARK  181  A    between atoms: _436  and  _438
REMARK  182  A    between atoms: _438  and  _439
REMARK  183  A    between atoms: _438  and  _441
REMARK  184  A    between atoms: _441  and  _442
REMARK  185  A    between atoms: _445  and  _447
REMARK  186  A    between atoms: _447  and  _448
REMARK  187  A    between atoms: _447  and  _450
REMARK  188  A    between atoms: _450  and  _451
REMARK  189  A    between atoms: _454  and  _456
REMARK  190  A    between atoms: _456  and  _457
REMARK  191  A    between atoms: _456  and  _459
REMARK  192  A    between atoms: _459  and  _460
REMARK  193  A    between atoms: _460  and  _461
REMARK  194  A    between atoms: _460  and  _462
REMARK  195  A    between atoms: _461  and  MG_705
REMARK  196  A    between atoms: _465  and  _467
REMARK  197  A    between atoms: _467  and  _468
REMARK  198  A    between atoms: _467  and  _470
REMARK  199  A    between atoms: _470  and  _471
REMARK  200  A    between atoms: _474  and  _476
REMARK  201  A    between atoms: _476  and  _477
REMARK  202  A    between atoms: _476  and  _479
REMARK  203  A    between atoms: _479  and  _480
REMARK  204  A    between atoms: _480  and  _481
REMARK  205  A    between atoms: _481  and  _482
REMARK  206  A    between atoms: _491  and  _493
REMARK  207  A    between atoms: _493  and  _494
REMARK  208  A    between atoms: _493  and  _496
REMARK  209  A    between atoms: _496  and  _497
REMARK  210  A    between atoms: _497  and  _499
REMARK  211  A    between atoms: _499  and  MG_705
REMARK  212  A    between atoms: _500  and  _502
REMARK  213  A    between atoms: _502  and  _503
REMARK  214  A    between atoms: _502  and  _505
REMARK  215  A    between atoms: _505  and  _506
REMARK  216  A    between atoms: _506  and  _507
REMARK  217  A    between atoms: _510  and  _512
REMARK  218  A    between atoms: _512  and  _513
REMARK  219  A    between atoms: _512  and  _515
REMARK  220  A    between atoms: _515  and  _516
REMARK  221  A    between atoms: _519  and  _521
REMARK  222  A    between atoms: _521  and  _522
REMARK  223  A    between atoms: _521  and  _524
REMARK  224  A    between atoms: _524  and  _525
REMARK  225  A    between atoms: _530  and  _532
REMARK  226  A    between atoms: _532  and  _533
REMARK  227  A    between atoms: _532  and  _535
REMARK  228  A    between atoms: _535  and  _536
REMARK  229  A    between atoms: _536  and  _537
REMARK  230  A    between atoms: _537  and  _538
REMARK  231  A    between atoms: _547  and  _549
REMARK  232  A    between atoms: _549  and  _550
REMARK  233  A    between atoms: _549  and  _552
REMARK  234  A    between atoms: _552  and  _553
REMARK  235  A    between atoms: _558  and  _559
REMARK  236  A    between atoms: _561  and  _563
REMARK  237  A    between atoms: _563  and  _564
REMARK  238  A    between atoms: _563  and  _566
REMARK  239  A    between atoms: _569  and  _571
REMARK  240  A    between atoms: _571  and  _572
REMARK  241  A    between atoms: _571  and  _574
REMARK  242  A    between atoms: _574  and  _575
REMARK  243  A    between atoms: _575  and  _576
REMARK  244  A    between atoms: _578  and  _580
REMARK  245  A    between atoms: _580  and  _581
REMARK  246  A    between atoms: _580  and  _583
REMARK  247  A    between atoms: _583  and  _584
REMARK  248  A    between atoms: _587  and  _589
REMARK  249  A    between atoms: _589  and  _590
REMARK  250  A    between atoms: _589  and  _592
REMARK  251  A    between atoms: _595  and  _597
REMARK  252  A    between atoms: _597  and  _598
REMARK  253  A    between atoms: _597  and  _600
REMARK  254  A    between atoms: _600  and  _601
REMARK  255  A    between atoms: _607  and  _609
REMARK  256  A    between atoms: _609  and  _610
REMARK  257  A    between atoms: _613  and  _615
REMARK  258  A    between atoms: _615  and  _616
REMARK  259  A    between atoms: _615  and  _618
REMARK  260  A    between atoms: _618  and  _619
REMARK  261  A    between atoms: _619  and  _620
REMARK  262  A    between atoms: _625  and  _627
REMARK  263  A    between atoms: _627  and  _628
REMARK  264  A    between atoms: _627  and  _630
REMARK  265  A    between atoms: _630  and  _631
REMARK  266  A    between atoms: _634  and  _636
REMARK  267  A    between atoms: _636  and  _637
REMARK  268  A    between atoms: _636  and  _639
REMARK  269  A    between atoms: _639  and  _640
REMARK  270  A    between atoms: _643  and  _645
REMARK  271  A    between atoms: _645  and  _646
REMARK  272  A    between atoms: _645  and  _648
REMARK  273  A    between atoms: _648  and  _649
REMARK  274  A    between atoms: _649  and  _650
REMARK  275  A    between atoms: _653  and  _655
REMARK  276  A    between atoms: _655  and  _656
REMARK  277  A    between atoms: _659  and  _661
REMARK  278  A    between atoms: _661  and  _662
REMARK  279  A    between atoms: _665  and  _667
REMARK  280  A    between atoms: _667  and  _668
REMARK  281  A    between atoms: _667  and  _670
REMARK  282  A    between atoms: _670  and  _671
REMARK  283  A    between atoms: _676  and  _677
REMARK  284  A    between atoms: _679  and  _681
REMARK  285  A    between atoms: _681  and  _682
REMARK  286  A    between atoms: _681  and  _684
REMARK  287  A    between atoms: _684  and  _685
REMARK  288  A    between atoms: _688  and  _690
REMARK  289  A    between atoms: _690  and  _691
REMARK  290  A    between atoms: _690  and  _693
REMARK  291  A    between atoms: _693  and  _694
REMARK  292  A    between atoms: _694  and  _695
REMARK  293  A    between atoms: _695  and  _696
REMARK                            x       y       z     vdW  Elec       q    Type
REMARK                         _______ _______ _______ _____ _____    ______ ____
ROOT
ATOM      1  C   VAL A   1      10.827  68.780  32.614  0.00  0.00    +0.238 C 
ATOM      2  O   VAL A   1       9.756  68.963  33.227  0.00  0.00    -0.274 OA
ATOM      3  N   MET A   2      11.892  69.569  32.799  0.00  0.00    -0.298 N 
ATOM      4  H   MET A   2      12.763  69.419  32.251  0.00  0.00    +0.150 HD
ENDROOT
BRANCH   1   5
ATOM      5  CA  VAL A   1      10.948  67.646  31.569  0.00  0.00    +0.145 C 
BRANCH   5   6
ATOM      6  CB  VAL A   1      11.787  66.469  32.153  0.00  0.00    +0.025 C 
ATOM      7  CG2 VAL A   1      11.405  66.212  33.610  0.00  0.00    +0.002 C 
ATOM      8  CG1 VAL A   1      11.503  65.201  31.346  0.00  0.00    +0.002 C 
ENDBRANCH   5   6
BRANCH   5   9
ATOM      9  N   VAL A   1      11.550  68.167  30.363  0.00  0.00    -0.238 NA
ATOM     10  H   VAL A   1      12.483  67.825  30.058  0.00  0.00    +0.142 HD
ENDBRANCH   5   9
ENDBRANCH   1   5
BRANCH   3  11
ATOM     11  CA  MET A   2      11.809  70.644  33.784  0.00  0.00    +0.138 C 
BRANCH  11  12
ATOM     12  C   MET A   2      10.670  71.602  33.454  0.00  0.00    +0.227 C 
ATOM     13  O   MET A   2       9.985  72.099  34.347  0.00  0.00    -0.286 OA
ENDBRANCH  11  12
BRANCH  11  14
ATOM     14  CB  MET A   2      13.123  71.416  33.870  0.00  0.00    +0.039 C 
BRANCH  14  15
ATOM     15  CG  MET A   2      14.265  70.619  34.478  0.00  0.00    +0.060 C 
BRANCH  15  16
ATOM     16  SD  MET A   2      13.833  69.980  36.117  0.00  0.00    -0.139 S 
ATOM     17  CE  MET A   2      13.657  68.251  35.749  0.00  0.00    +0.069 C 
ENDBRANCH  15  16
ENDBRANCH  14  15
ENDBRANCH  11  14
ENDBRANCH   3  11
TORSDOF 8
REMARK  Name = ../refined-set-2016/2zcr/2zcr_pocket.pdb
REMARK  293 active torsions:
REMARK  status: ('A' for Active; 'I' for Inactive)
REMARK    1  A    between atoms: _1  and  _3
REMARK    2  A    between atoms: _3  and  _4
REMARK    3  A    between atoms: _3  and  _6
REMARK    4  A    between atoms: _6  and  _7
REMARK    5  A    between atoms: _7  and  _8
REMARK    6  A    between atoms: _10  and  _12
REMARK    7  A    between atoms: _12  and  _13
REMARK    8  A    between atoms: _12  and  _15
REMARK    9  A    between atoms: _15  and  _16
REMARK   10  A    between atoms: _21  and  _23
REMARK   11  A    between atoms: _23  and  _24
REMARK   12  A    between atoms: _23  and  _26
REMARK   13  A    between atoms: _26  and  _27
REMARK   14  A    between atoms: _29  and  _31
REMARK   15  A    between atoms: _31  and  _32
REMARK   16  A    between atoms: _31  and  _34
REMARK   17  A    between atoms: _34  and  _35
REMARK   18  A    between atoms: _35  and  _36
REMARK   19  A    between atoms: _36  and  _37
REMARK   20  A    between atoms: _37  and  _38
REMARK   21  A    between atoms: _42  and  _44
REMARK   22  A    between atoms: _44  and  _45
REMARK   23  A    between atoms: _44  and  _47
REMARK   24  A    between atoms: _47  and  _48
REMARK   25  A    between atoms: _50  and  _52
REMARK   26  A    between atoms: _52  and  _53
REMARK   27  A    between atoms: _52  and  _55
REMARK   28  A    between atoms: _55  and  _56
REMARK   29  A    between atoms: _62  and  _64
REMARK   30  A    between atoms: _64  and  _65
REMARK   31  A    between atoms: _68  and  _70
REMARK   32  A    between atoms: _70  and  _71
REMARK   33  A    between atoms: _70  and  _73
REMARK   34  A    between atoms: _73  and  _74
REMARK   35  A    between atoms: _80  and  _82
REMARK   36  A    between atoms: _82  and  _83
REMARK   37  A    between atoms: _82  and  _85
REMARK   38  A    between atoms: _85  and  _86
REMARK   39  A    between atoms: _89  and  _91
REMARK   40  A    between atoms: _91  and  _92
REMARK   41  A    between atoms: _91  and  _94
REMARK   42  A    between atoms: _97  and  _99
REMARK   43  A    between atoms: _99  and  _100
REMARK   44  A    between atoms: _99  and  _102
REMARK   45  A    between atoms: _102  and  _103
REMARK   46  A    between atoms: _106  and  _108
REMARK   47  A    between atoms: _108  and  _109
REMARK   48  A    between atoms: _108  and  _111
REMARK   49  A    between atoms: _111  and  _112
REMARK   50  A    between atoms: _117  and  _118
REMARK   51  A    between atoms: _120  and  _122
REMARK   52  A    between atoms: _122  and  _123
REMARK   53  A    between atoms: _122  and  _125
REMARK   54  A    between atoms: _127  and  _129
REMARK   55  A    between atoms: _129  and  _130
REMARK   56  A    between atoms: _129  and  _132
REMARK   57  A    between atoms: _132  and  _133
REMARK   58  A    between atoms: _133  and  _134
REMARK   59  A    between atoms: _134  and  _135
REMARK   60  A    between atoms: _144  and  _146
REMARK   61  A    between atoms: _146  and  _147
REMARK   62  A    between atoms: _146  and  _149
REMARK   63  A    between atoms: _149  and  _150
REMARK   64  A    between atoms: _153  and  _155
REMARK   65  A    between atoms: _155  and  _156
REMARK   66  A    between atoms: _155  and  _158
REMARK   67  A    between atoms: _158  and  _159
REMARK   68  A    between atoms: _162  and  _164
REMARK   69  A    between atoms: _164  and  _165
REMARK   70  A    between atoms: _164  and  _167
REMARK   71  A    between atoms: _167  and  _168
REMARK   72  A    between atoms: _171  and  _173
REMARK   73  A    between atoms: _173  and  _174
REMARK   74  A    between atoms: _173  and  _176
REMARK   75  A    between atoms: _179  and  _181
REMARK   76  A    between atoms: _181  and  _182
REMARK   77  A    between atoms: _181  and  _184
REMARK   78  A    between atoms: _184  and  _185
REMARK   79  A    between atoms: _188  and  _190
REMARK   80  A    between atoms: _190  and  _191
REMARK   81  A    between atoms: _190  and  _193
REMARK   82  A    between atoms: _193  and  _194
REMARK   83  A    between atoms: _199  and  _200
REMARK   84  A    between atoms: _202  and  _204
REMARK   85  A    between atoms: _204  and  _205
REMARK   86  A    between atoms: _204  and  _207
REMARK   87  A    between atoms: _209  and  _211
REMARK   88  A    between atoms: _211  and  _212
REMARK   89  A    between atoms: _211  and  _214
REMARK   90  A    between atoms: _217  and  _219
REMARK   91  A    between atoms: _219  and  _220
REMARK   92  A    between atoms: _223  and  _225
REMARK   93  A    between atoms: _225  and  _226
REMARK   94  A    between atoms: _228  and  _230
REMARK   95  A    between atoms: _230  and  _231
REMARK   96  A    between atoms: _230  and  _233
REMARK   97  A    between atoms: _233  and  _234
REMARK   98  A    between atoms: _237  and  _239
REMARK   99  A    between atoms: _239  and  _240
REMARK  100  A    between atoms: _239  and  _242
REMARK  101  A    between atoms: _245  and  _247
REMARK  102  A    between atoms: _247  and  _248
REMARK  103  A    between atoms: _250  and  _252
REMARK  104  A    between atoms: _252  and  _253
REMARK  105  A    between atoms: _252  and  _255
REMARK  106  A    between atoms: _255  and  _256
REMARK  107  A    between atoms: _256  and  _257
REMARK  108  A    between atoms: _260  and  _262
REMARK  109  A    between atoms: _262  and  _263
REMARK  110  A    between atoms: _262  and  _265
REMARK  111  A    between atoms: _268  and  _270
REMARK  112  A    between atoms: _270  and  _271
REMARK  113  A    between atoms: _270  and  _273
REMARK  114  A    between atoms: _273  and  _274
REMARK  115  A    between atoms: _277  and  _279
REMARK  116  A    between atoms: _279  and  _280
REMARK  117  A    between atoms: _279  and  _282
REMARK  118  A    between atoms: _282  and  _283
REMARK  119  A    between atoms: _286  and  _288
REMARK  120  A    between atoms: _288  and  _289
REMARK  121  A    between atoms: _288  and  _291
REMARK  122  A    between atoms: _291  and  _292
REMARK  123  A    between atoms: _295  and  _297
REMARK  124  A    between atoms: _297  and  _298
REMARK  125  A    between atoms: _297  and  _300
REMARK  126  A    between atoms: _300  and  _301
REMARK  127  A    between atoms: _304  and  _306
REMARK  128  A    between atoms: _306  and  _307
REMARK  129  A    between atoms: _306  and  _309
REMARK  130  A    between atoms: _309  and  _310
REMARK  131  A    between atoms: _312  and  _314
REMARK  132  A    between atoms: _314  and  _315
REMARK  133  A    between atoms: _314  and  _317
REMARK  134  A    between atoms: _317  and  _318
REMARK  135  A    between atoms: _321  and  _323
REMARK  136  A    between atoms: _323  and  _324
REMARK  137  A    between atoms: _323  and  _326
REMARK  138  A    between atoms: _326  and  _327
REMARK  139  A    between atoms: _332  and  _333
REMARK  140  A    between atoms: _335  and  _337
REMARK  141  A    between atoms: _337  and  _338
REMARK  142  A    between atoms: _337  and  _340
REMARK  143  A    between atoms: _343  and  _345
REMARK  144  A    between atoms: _345  and  _346
REMARK  145  A    between atoms: _349  and  _351
REMARK  146  A    between atoms: _351  and  _352
REMARK  147  A    between atoms: _351  and  _354
REMARK  148  A    between atoms: _354  and  _355
REMARK  149  A    between atoms: _355  and  _356
REMARK  150  A    between atoms: _356  and  _357
REMARK  151  A    between atoms: _366  and  _368
REMARK  152  A    between atoms: _368  and  _369
REMARK  153  A    between atoms: _368  and  _371
REMARK  154  A    between atoms: _371  and  _372
REMARK  155  A    between atoms: _372  and  _373
REMARK  156  A    between atoms: _373  and  _374
REMARK  157  A    between atoms: _383  and  _385
REMARK  158  A    between atoms: _385  and  _386
REMARK  159  A    between atoms: _385  and  _388
REMARK  160  A    between atoms: _388  and  _389
REMARK  161  A    between atoms: _392  and  _394
REMARK  162  A    between atoms: _394  and  _395
REMARK  163  A    between atoms: _397  and  _399
REMARK  164  A    between atoms: _399  and  _400
REMARK  165  A    between atoms: _399  and  _402
REMARK  166  A    between atoms: _402  and  _403
REMARK  167  A    between atoms: _403  and  _404
REMARK  168  A    between atoms: _407  and  _409
REMARK  169  A    between atoms: _409  and  _410
REMARK  170  A    between atoms: _409  and  _412
REMARK  171  A    between atoms: _412  and  _413
REMARK  172  A    between atoms: _415  and  _417
REMARK  173  A    between atoms: _417  and  _418
REMARK  174  A    between atoms: _417  and  _420
REMARK  175  A    between atoms: _420  and  _421
REMARK  176  A    between atoms: _424  and  _426
REMARK  177  A    between atoms: _426  and  _427
REMARK  178  A    between atoms: _426  and  _429
REMARK  179  A    between atoms: _429  and  _430
REMARK  180  A    between atoms: _430  and  _431
REMARK  181  A    between atoms: _436  and  _438
REMARK  182  A    between atoms: _438  and  _439
REMARK  183  A    between atoms: _438  and  _441
REMARK  184  A    between atoms: _441  and  _442
REMARK  185  A    between atoms: _445  and  _447
REMARK  186  A    between atoms: _447  and  _448
REMARK  187  A    between atoms: _447  and  _450
REMARK  188  A    between atoms: _450  and  _451
REMARK  189  A    between atoms: _454  and  _456
REMARK  190  A    between atoms: _456  and  _457
REMARK  191  A    between atoms: _456  and  _459
REMARK  192  A    between atoms: _459  and  _460
REMARK  193  A    between atoms: _460  and  _461
REMARK  194  A    between atoms: _460  and  _462
REMARK  195  A    between atoms: _461  and  MG_705
REMARK  196  A    between atoms: _465  and  _467
REMARK  197  A    between atoms: _467  and  _468
REMARK  198  A    between atoms: _467  and  _470
REMARK  199  A    between atoms: _470  and  _471
REMARK  200  A    between atoms: _474  and  _476
REMARK  201  A    between atoms: _476  and  _477
REMARK  202  A    between atoms: _476  and  _479
REMARK  203  A    between atoms: _479  and  _480
REMARK  204  A    between atoms: _480  and  _481
REMARK  205  A    between atoms: _481  and  _482
REMARK  206  A    between atoms: _491  and  _493
REMARK  207  A    between atoms: _493  and  _494
REMARK  208  A    between atoms: _493  and  _496
REMARK  209  A    between atoms: _496  and  _497
REMARK  210  A    between atoms: _497  and  _499
REMARK  211  A    between atoms: _499  and  MG_705
REMARK  212  A    between atoms: _500  and  _502
REMARK  213  A    between atoms: _502  and  _503
REMARK  214  A    between atoms: _502  and  _505
REMARK  215  A    between atoms: _505  and  _506
REMARK  216  A    between atoms: _506  and  _507
REMARK  217  A    between atoms: _510  and  _512
REMARK  218  A    between atoms: _512  and  _513
REMARK  219  A    between atoms: _512  and  _515
REMARK  220  A    between atoms: _515  and  _516
REMARK  221  A    between atoms: _519  and  _521
REMARK  222  A    between atoms: _521  and  _522
REMARK  223  A    between atoms: _521  and  _524
REMARK  224  A    between atoms: _524  and  _525
REMARK  225  A    between atoms: _530  and  _532
REMARK  226  A    between atoms: _532  and  _533
REMARK  227  A    between atoms: _532  and  _535
REMARK  228  A    between atoms: _535  and  _536
REMARK  229  A    between atoms: _536  and  _537
REMARK  230  A    between atoms: _537  and  _538
REMARK  231  A    between atoms: _547  and  _549
REMARK  232  A    between atoms: _549  and  _550
REMARK  233  A    between atoms: _549  and  _552
REMARK  234  A    between atoms: _552  and  _553
REMARK  235  A    between atoms: _558  and  _559
REMARK  236  A    between atoms: _561  and  _563
REMARK  237  A    between atoms: _563  and  _564
REMARK  238  A    between atoms: _563  and  _566
REMARK  239  A    between atoms: _569  and  _571
REMARK  240  A    between atoms: _571  and  _572
REMARK  241  A    between atoms: _571  and  _574
REMARK  242  A    between atoms: _574  and  _575
REMARK  243  A    between atoms: _575  and  _576
REMARK  244  A    between atoms: _578  and  _580
REMARK  245  A    between atoms: _580  and  _581
REMARK  246  A    between atoms: _580  and  _583
REMARK  247  A    between atoms: _583  and  _584
REMARK  248  A    between atoms: _587  and  _589
REMARK  249  A    between atoms: _589  and  _590
REMARK  250  A    between atoms: _589  and  _592
REMARK  251  A    between atoms: _595  and  _597
REMARK  252  A    between atoms: _597  and  _598
REMARK  253  A    between atoms: _597  and  _600
REMARK  254  A    between atoms: _600  and  _601
REMARK  255  A    between atoms: _607  and  _609
REMARK  256  A    between atoms: _609  and  _610
REMARK  257  A    between atoms: _613  and  _615
REMARK  258  A    between atoms: _615  and  _616
REMARK  259  A    between atoms: _615  and  _618
REMARK  260  A    between atoms: _618  and  _619
REMARK  261  A    between atoms: _619  and  _620
REMARK  262  A    between atoms: _625  and  _627
REMARK  263  A    between atoms: _627  and  _628
REMARK  264  A    between atoms: _627  and  _630
REMARK  265  A    between atoms: _630  and  _631
REMARK  266  A    between atoms: _634  and  _636
REMARK  267  A    between atoms: _636  and  _637
REMARK  268  A    between atoms: _636  and  _639
REMARK  269  A    between atoms: _639  and  _640
REMARK  270  A    between atoms: _643  and  _645
REMARK  271  A    between atoms: _645  and  _646
REMARK  272  A    between atoms: _645  and  _648
REMARK  273  A    between atoms: _648  and  _649
REMARK  274  A    between atoms: _649  and  _650
REMARK  275  A    between atoms: _653  and  _655
REMARK  276  A    between atoms: _655  and  _656
REMARK  277  A    between atoms: _659  and  _661
REMARK  278  A    between atoms: _661  and  _662
REMARK  279  A    between atoms: _665  and  _667
REMARK  280  A    between atoms: _667  and  _668
REMARK  281  A    between atoms: _667  and  _670
REMARK  282  A    between atoms: _670  and  _671
REMARK  283  A    between atoms: _676  and  _677
REMARK  284  A    between atoms: _679  and  _681
REMARK  285  A    between atoms: _681  and  _682
REMARK  286  A    between atoms: _681  and  _684
REMARK  287  A    between atoms: _684  and  _685
REMARK  288  A    between atoms: _688  and  _690
REMARK  289  A    between atoms: _690  and  _691
REMARK  290  A    between atoms: _690  and  _693
REMARK  291  A    between atoms: _693  and  _694
REMARK  292  A    between atoms: _694  and  _695
REMARK  293  A    between atoms: _695  and  _696
REMARK                            x       y       z     vdW  Elec       q    Type
REMARK                         _______ _______ _______ _____ _____    ______ ____
ROOT
ATOM      1  CA  ILE A   1       7.477  69.711  36.322  0.00  0.00    +0.133 C 
ENDROOT
BRANCH   1   2
ATOM      2  N   ILE A   1       7.392  70.177  34.944  0.00  0.00    -0.239 NA
ATOM      3  H   ILE A   1       8.037  70.936  34.645  0.00  0.00    +0.142 HD
ENDBRANCH   1   2
BRANCH   1   4
ATOM      4  C   ILE A   1       6.168  69.850  37.102  0.00  0.00    +0.224 C 
ATOM      5  O   ILE A   1       5.927  69.117  38.071  0.00  0.00    -0.287 OA
ENDBRANCH   1   4
BRANCH   1   6
ATOM      6  CB  ILE A   1       8.607  70.493  37.060  0.00  0.00    +0.023 C 
ATOM      7  CG2 ILE A   1       8.152  71.911  37.361  0.00  0.00    +0.002 C 
BRANCH   6   8
ATOM      8  CG1 ILE A   1       9.041  69.750  38.319  0.00  0.00    +0.002 C 
ATOM      9  CD1 ILE A   1       9.904  68.555  38.027  0.00  0.00    +0.000 C 
ENDBRANCH   6   8
ENDBRANCH   1   6
TORSDOF 4
REMARK  Name = ../refined-set-2016/2zcr/2zcr_pocket.pdb
REMARK  293 active torsions:
REMARK  status: ('A' for Active; 'I' for Inactive)
REMARK    1  A    between atoms: _1  and  _3
REMARK    2  A    between atoms: _3  and  _4
REMARK    3  A    between atoms: _3  and  _6
REMARK    4  A    between atoms: _6  and  _7
REMARK    5  A    between atoms: _7  and  _8
REMARK    6  A    between atoms: _10  and  _12
REMARK    7  A    between atoms: _12  and  _13
REMARK    8  A    between atoms: _12  and  _15
REMARK    9  A    between atoms: _15  and  _16
REMARK   10  A    between atoms: _21  and  _23
REMARK   11  A    between atoms: _23  and  _24
REMARK   12  A    between atoms: _23  and  _26
REMARK   13  A    between atoms: _26  and  _27
REMARK   14  A    between atoms: _29  and  _31
REMARK   15  A    between atoms: _31  and  _32
REMARK   16  A    between atoms: _31  and  _34
REMARK   17  A    between atoms: _34  and  _35
REMARK   18  A    between atoms: _35  and  _36
REMARK   19  A    between atoms: _36  and  _37
REMARK   20  A    between atoms: _37  and  _38
REMARK   21  A    between atoms: _42  and  _44
REMARK   22  A    between atoms: _44  and  _45
REMARK   23  A    between atoms: _44  and  _47
REMARK   24  A    between atoms: _47  and  _48
REMARK   25  A    between atoms: _50  and  _52
REMARK   26  A    between atoms: _52  and  _53
REMARK   27  A    between atoms: _52  and  _55
REMARK   28  A    between atoms: _55  and  _56
REMARK   29  A    between atoms: _62  and  _64
REMARK   30  A    between atoms: _64  and  _65
REMARK   31  A    between atoms: _68  and  _70
REMARK   32  A    between atoms: _70  and  _71
REMARK   33  A    between atoms: _70  and  _73
REMARK   34  A    between atoms: _73  and  _74
REMARK   35  A    between atoms: _80  and  _82
REMARK   36  A    between atoms: _82  and  _83
REMARK   37  A    between atoms: _82  and  _85
REMARK   38  A    between atoms: _85  and  _86
REMARK   39  A    between atoms: _89  and  _91
REMARK   40  A    between atoms: _91  and  _92
REMARK   41  A    between atoms: _91  and  _94
REMARK   42  A    between atoms: _97  and  _99
REMARK   43  A    between atoms: _99  and  _100
REMARK   44  A    between atoms: _99  and  _102
REMARK   45  A    between atoms: _102  and  _103
REMARK   46  A    between atoms: _106  and  _108
REMARK   47  A    between atoms: _108  and  _109
REMARK   48  A    between atoms: _108  and  _111
REMARK   49  A    between atoms: _111  and  _112
REMARK   50  A    between atoms: _117  and  _118
REMARK   51  A    between atoms: _120  and  _122
REMARK   52  A    between atoms: _122  and  _123
REMARK   53  A    between atoms: _122  and  _125
REMARK   54  A    between atoms: _127  and  _129
REMARK   55  A    between atoms: _129  and  _130
REMARK   56  A    between atoms: _129  and  _132
REMARK   57  A    between atoms: _132  and  _133
REMARK   58  A    between atoms: _133  and  _134
REMARK   59  A    between atoms: _134  and  _135
REMARK   60  A    between atoms: _144  and  _146
REMARK   61  A    between atoms: _146  and  _147
REMARK   62  A    between atoms: _146  and  _149
REMARK   63  A    between atoms: _149  and  _150
REMARK   64  A    between atoms: _153  and  _155
REMARK   65  A    between atoms: _155  and  _156
REMARK   66  A    between atoms: _155  and  _158
REMARK   67  A    between atoms: _158  and  _159
REMARK   68  A    between atoms: _162  and  _164
REMARK   69  A    between atoms: _164  and  _165
REMARK   70  A    between atoms: _164  and  _167
REMARK   71  A    between atoms: _167  and  _168
REMARK   72  A    between atoms: _171  and  _173
REMARK   73  A    between atoms: _173  and  _174
REMARK   74  A    between atoms: _173  and  _176
REMARK   75  A    between atoms: _179  and  _181
REMARK   76  A    between atoms: _181  and  _182
REMARK   77  A    between atoms: _181  and  _184
REMARK   78  A    between atoms: _184  and  _185
REMARK   79  A    between atoms: _188  and  _190
REMARK   80  A    between atoms: _190  and  _191
REMARK   81  A    between atoms: _190  and  _193
REMARK   82  A    between atoms: _193  and  _194
REMARK   83  A    between atoms: _199  and  _200
REMARK   84  A    between atoms: _202  and  _204
REMARK   85  A    between atoms: _204  and  _205
REMARK   86  A    between atoms: _204  and  _207
REMARK   87  A    between atoms: _209  and  _211
REMARK   88  A    between atoms: _211  and  _212
REMARK   89  A    between atoms: _211  and  _214
REMARK   90  A    between atoms: _217  and  _219
REMARK   91  A    between atoms: _219  and  _220
REMARK   92  A    between atoms: _223  and  _225
REMARK   93  A    between atoms: _225  and  _226
REMARK   94  A    between atoms: _228  and  _230
REMARK   95  A    between atoms: _230  and  _231
REMARK   96  A    between atoms: _230  and  _233
REMARK   97  A    between atoms: _233  and  _234
REMARK   98  A    between atoms: _237  and  _239
REMARK   99  A    between atoms: _239  and  _240
REMARK  100  A    between atoms: _239  and  _242
REMARK  101  A    between atoms: _245  and  _247
REMARK  102  A    between atoms: _247  and  _248
REMARK  103  A    between atoms: _250  and  _252
REMARK  104  A    between atoms: _252  and  _253
REMARK  105  A    between atoms: _252  and  _255
REMARK  106  A    between atoms: _255  and  _256
REMARK  107  A    between atoms: _256  and  _257
REMARK  108  A    between atoms: _260  and  _262
REMARK  109  A    between atoms: _262  and  _263
REMARK  110  A    between atoms: _262  and  _265
REMARK  111  A    between atoms: _268  and  _270
REMARK  112  A    between atoms: _270  and  _271
REMARK  113  A    between atoms: _270  and  _273
REMARK  114  A    between atoms: _273  and  _274
REMARK  115  A    between atoms: _277  and  _279
REMARK  116  A    between atoms: _279  and  _280
REMARK  117  A    between atoms: _279  and  _282
REMARK  118  A    between atoms: _282  and  _283
REMARK  119  A    between atoms: _286  and  _288
REMARK  120  A    between atoms: _288  and  _289
REMARK  121  A    between atoms: _288  and  _291
REMARK  122  A    between atoms: _291  and  _292
REMARK  123  A    between atoms: _295  and  _297
REMARK  124  A    between atoms: _297  and  _298
REMARK  125  A    between atoms: _297  and  _300
REMARK  126  A    between atoms: _300  and  _301
REMARK  127  A    between atoms: _304  and  _306
REMARK  128  A    between atoms: _306  and  _307
REMARK  129  A    between atoms: _306  and  _309
REMARK  130  A    between atoms: _309  and  _310
REMARK  131  A    between atoms: _312  and  _314
REMARK  132  A    between atoms: _314  and  _315
REMARK  133  A    between atoms: _314  and  _317
REMARK  134  A    between atoms: _317  and  _318
REMARK  135  A    between atoms: _321  and  _323
REMARK  136  A    between atoms: _323  and  _324
REMARK  137  A    between atoms: _323  and  _326
REMARK  138  A    between atoms: _326  and  _327
REMARK  139  A    between atoms: _332  and  _333
REMARK  140  A    between atoms: _335  and  _337
REMARK  141  A    between atoms: _337  and  _338
REMARK  142  A    between atoms: _337  and  _340
REMARK  143  A    between atoms: _343  and  _345
REMARK  144  A    between atoms: _345  and  _346
REMARK  145  A    between atoms: _349  and  _351
REMARK  146  A    between atoms: _351  and  _352
REMARK  147  A    between atoms: _351  and  _354
REMARK  148  A    between atoms: _354  and  _355
REMARK  149  A    between atoms: _355  and  _356
REMARK  150  A    between atoms: _356  and  _357
REMARK  151  A    between atoms: _366  and  _368
REMARK  152  A    between atoms: _368  and  _369
REMARK  153  A    between atoms: _368  and  _371
REMARK  154  A    between atoms: _371  and  _372
REMARK  155  A    between atoms: _372  and  _373
REMARK  156  A    between atoms: _373  and  _374
REMARK  157  A    between atoms: _383  and  _385
REMARK  158  A    between atoms: _385  and  _386
REMARK  159  A    between atoms: _385  and  _388
REMARK  160  A    between atoms: _388  and  _389
REMARK  161  A    between atoms: _392  and  _394
REMARK  162  A    between atoms: _394  and  _395
REMARK  163  A    between atoms: _397  and  _399
REMARK  164  A    between atoms: _399  and  _400
REMARK  165  A    between atoms: _399  and  _402
REMARK  166  A    between atoms: _402  and  _403
REMARK  167  A    between atoms: _403  and  _404
REMARK  168  A    between atoms: _407  and  _409
REMARK  169  A    between atoms: _409  and  _410
REMARK  170  A    between atoms: _409  and  _412
REMARK  171  A    between atoms: _412  and  _413
REMARK  172  A    between atoms: _415  and  _417
REMARK  173  A    between atoms: _417  and  _418
REMARK  174  A    between atoms: _417  and  _420
REMARK  175  A    between atoms: _420  and  _421
REMARK  176  A    between atoms: _424  and  _426
REMARK  177  A    between atoms: _426  and  _427
REMARK  178  A    between atoms: _426  and  _429
REMARK  179  A    between atoms: _429  and  _430
REMARK  180  A    between atoms: _430  and  _431
REMARK  181  A    between atoms: _436  and  _438
REMARK  182  A    between atoms: _438  and  _439
REMARK  183  A    between atoms: _438  and  _441
REMARK  184  A    between atoms: _441  and  _442
REMARK  185  A    between atoms: _445  and  _447
REMARK  186  A    between atoms: _447  and  _448
REMARK  187  A    between atoms: _447  and  _450
REMARK  188  A    between atoms: _450  and  _451
REMARK  189  A    between atoms: _454  and  _456
REMARK  190  A    between atoms: _456  and  _457
REMARK  191  A    between atoms: _456  and  _459
REMARK  192  A    between atoms: _459  and  _460
REMARK  193  A    between atoms: _460  and  _461
REMARK  194  A    between atoms: _460  and  _462
REMARK  195  A    between atoms: _461  and  MG_705
REMARK  196  A    between atoms: _465  and  _467
REMARK  197  A    between atoms: _467  and  _468
REMARK  198  A    between atoms: _467  and  _470
REMARK  199  A    between atoms: _470  and  _471
REMARK  200  A    between atoms: _474  and  _476
REMARK  201  A    between atoms: _476  and  _477
REMARK  202  A    between atoms: _476  and  _479
REMARK  203  A    between atoms: _479  and  _480
REMARK  204  A    between atoms: _480  and  _481
REMARK  205  A    between atoms: _481  and  _482
REMARK  206  A    between atoms: _491  and  _493
REMARK  207  A    between atoms: _493  and  _494
REMARK  208  A    between atoms: _493  and  _496
REMARK  209  A    between atoms: _496  and  _497
REMARK  210  A    between atoms: _497  and  _499
REMARK  211  A    between atoms: _499  and  MG_705
REMARK  212  A    between atoms: _500  and  _502
REMARK  213  A    between atoms: _502  and  _503
REMARK  214  A    between atoms: _502  and  _505
REMARK  215  A    between atoms: _505  and  _506
REMARK  216  A    between atoms: _506  and  _507
REMARK  217  A    between atoms: _510  and  _512
REMARK  218  A    between atoms: _512  and  _513
REMARK  219  A    between atoms: _512  and  _515
REMARK  220  A    between atoms: _515  and  _516
REMARK  221  A    between atoms: _519  and  _521
REMARK  222  A    between atoms: _521  and  _522
REMARK  223  A    between atoms: _521  and  _524
REMARK  224  A    between atoms: _524  and  _525
REMARK  225  A    between atoms: _530  and  _532
REMARK  226  A    between atoms: _532  and  _533
REMARK  227  A    between atoms: _532  and  _535
REMARK  228  A    between atoms: _535  and  _536
REMARK  229  A    between atoms: _536  and  _537
REMARK  230  A    between atoms: _537  and  _538
REMARK  231  A    between atoms: _547  and  _549
REMARK  232  A    between atoms: _549  and  _550
REMARK  233  A    between atoms: _549  and  _552
REMARK  234  A    between atoms: _552  and  _553
REMARK  235  A    between atoms: _558  and  _559
REMARK  236  A    between atoms: _561  and  _563
REMARK  237  A    between atoms: _563  and  _564
REMARK  238  A    between atoms: _563  and  _566
REMARK  239  A    between atoms: _569  and  _571
REMARK  240  A    between atoms: _571  and  _572
REMARK  241  A    between atoms: _571  and  _574
REMARK  242  A    between atoms: _574  and  _575
REMARK  243  A    between atoms: _575  and  _576
REMARK  244  A    between atoms: _578  and  _580
REMARK  245  A    between atoms: _580  and  _581
REMARK  246  A    between atoms: _580  and  _583
REMARK  247  A    between atoms: _583  and  _584
REMARK  248  A    between atoms: _587  and  _589
REMARK  249  A    between atoms: _589  and  _590
REMARK  250  A    between atoms: _589  and  _592
REMARK  251  A    between atoms: _595  and  _597
REMARK  252  A    between atoms: _597  and  _598
REMARK  253  A    between atoms: _597  and  _600
REMARK  254  A    between atoms: _600  and  _601
REMARK  255  A    between atoms: _607  and  _609
REMARK  256  A    between atoms: _609  and  _610
REMARK  257  A    between atoms: _613  and  _615
REMARK  258  A    between atoms: _615  and  _616
REMARK  259  A    between atoms: _615  and  _618
REMARK  260  A    between atoms: _618  and  _619
REMARK  261  A    between atoms: _619  and  _620
REMARK  262  A    between atoms: _625  and  _627
REMARK  263  A    between atoms: _627  and  _628
REMARK  264  A    between atoms: _627  and  _630
REMARK  265  A    between atoms: _630  and  _631
REMARK  266  A    between atoms: _634  and  _636
REMARK  267  A    between atoms: _636  and  _637
REMARK  268  A    between atoms: _636  and  _639
REMARK  269  A    between atoms: _639  and  _640
REMARK  270  A    between atoms: _643  and  _645
REMARK  271  A    between atoms: _645  and  _646
REMARK  272  A    between atoms: _645  and  _648
REMARK  273  A    between atoms: _648  and  _649
REMARK  274  A    between atoms: _649  and  _650
REMARK  275  A    between atoms: _653  and  _655
REMARK  276  A    between atoms: _655  and  _656
REMARK  277  A    between atoms: _659  and  _661
REMARK  278  A    between atoms: _661  and  _662
REMARK  279  A    between atoms: _665  and  _667
REMARK  280  A    between atoms: _667  and  _668
REMARK  281  A    between atoms: _667  and  _670
REMARK  282  A    between atoms: _670  and  _671
REMARK  283  A    between atoms: _676  and  _677
REMARK  284  A    between atoms: _679  and  _681
REMARK  285  A    between atoms: _681  and  _682
REMARK  286  A    between atoms: _681  and  _684
REMARK  287  A    between atoms: _684  and  _685
REMARK  288  A    between atoms: _688  and  _690
REMARK  289  A    between atoms: _690  and  _691
REMARK  290  A    between atoms: _690  and  _693
REMARK  291  A    between atoms: _693  and  _694
REMARK  292  A    between atoms: _694  and  _695
REMARK  293  A    between atoms: _695  and  _696
REMARK                            x       y       z     vdW  Elec       q    Type
REMARK                         _______ _______ _______ _____ _____    ______ ____
ROOT
ATOM      1  C   VAL A   1       2.609  66.871  37.743  0.00  0.00    +0.238 C 
ATOM      2  N   PHE A   2       3.683  67.078  38.491  0.00  0.00    -0.298 N 
ATOM      3  H   PHE A   2       4.392  67.775  38.187  0.00  0.00    +0.150 HD
ATOM      4  O   VAL A   1       1.723  66.096  38.067  0.00  0.00    -0.274 OA
ENDROOT
BRANCH   1   5
ATOM      5  CA  VAL A   1       2.497  67.657  36.456  0.00  0.00    +0.145 C 
BRANCH   5   6
ATOM      6  CB  VAL A   1       2.831  66.715  35.299  0.00  0.00    +0.025 C 
ATOM      7  CG2 VAL A   1       4.225  66.137  35.480  0.00  0.00    +0.002 C 
ATOM      8  CG1 VAL A   1       2.701  67.440  33.983  0.00  0.00    +0.002 C 
ENDBRANCH   5   6
BRANCH   5   9
ATOM      9  N   VAL A   1       3.393  68.790  36.537  0.00  0.00    -0.238 NA
ATOM     10  H   VAL A   1       4.292  68.791  36.014  0.00  0.00    +0.142 HD
ENDBRANCH   5   9
ENDBRANCH   1   5
BRANCH   2  11
ATOM     11  CA  PHE A   2       3.886  66.341  39.739  0.00  0.00    +0.141 C 
BRANCH  11  12
ATOM     12  C   PHE A   2       3.337  67.100  40.924  0.00  0.00    +0.227 C 
ATOM     13  O   PHE A   2       3.113  68.302  40.837  0.00  0.00    -0.286 OA
ENDBRANCH  11  12
BRANCH  11  14
ATOM     14  CB  PHE A   2       5.382  66.079  39.950  0.00  0.00    +0.054 C 
BRANCH  14  15
ATOM     15  CG  PHE A   2       5.989  65.267  38.861  0.00  0.00    -0.020 A 
ATOM     16  CD2 PHE A   2       5.594  63.938  38.687  0.00  0.00    -0.004 A 
ATOM     17  CE2 PHE A   2       6.118  63.176  37.656  0.00  0.00    -0.000 A 
ATOM     18  CZ  PHE A   2       7.042  63.737  36.782  0.00  0.00    -0.000 A 
ATOM     19  CE1 PHE A   2       7.448  65.068  36.941  0.00  0.00    -0.000 A 
ATOM     20  CD1 PHE A   2       6.917  65.829  37.990  0.00  0.00    -0.004 A 
ENDBRANCH  14  15
ENDBRANCH  11  14
ENDBRANCH   2  11
TORSDOF 7
REMARK  Name = ../refined-set-2016/2zcr/2zcr_pocket.pdb
REMARK  293 active torsions:
REMARK  status: ('A' for Active; 'I' for Inactive)
REMARK    1  A    between atoms: _1  and  _3
REMARK    2  A    between atoms: _3  and  _4
REMARK    3  A    between atoms: _3  and  _6
REMARK    4  A    between atoms: _6  and  _7
REMARK    5  A    between atoms: _7  and  _8
REMARK    6  A    between atoms: _10  and  _12
REMARK    7  A    between atoms: _12  and  _13
REMARK    8  A    between atoms: _12  and  _15
REMARK    9  A    between atoms: _15  and  _16
REMARK   10  A    between atoms: _21  and  _23
REMARK   11  A    between atoms: _23  and  _24
REMARK   12  A    between atoms: _23  and  _26
REMARK   13  A    between atoms: _26  and  _27
REMARK   14  A    between atoms: _29  and  _31
REMARK   15  A    between atoms: _31  and  _32
REMARK   16  A    between atoms: _31  and  _34
REMARK   17  A    between atoms: _34  and  _35
REMARK   18  A    between atoms: _35  and  _36
REMARK   19  A    between atoms: _36  and  _37
REMARK   20  A    between atoms: _37  and  _38
REMARK   21  A    between atoms: _42  and  _44
REMARK   22  A    between atoms: _44  and  _45
REMARK   23  A    between atoms: _44  and  _47
REMARK   24  A    between atoms: _47  and  _48
REMARK   25  A    between atoms: _50  and  _52
REMARK   26  A    between atoms: _52  and  _53
REMARK   27  A    between atoms: _52  and  _55
REMARK   28  A    between atoms: _55  and  _56
REMARK   29  A    between atoms: _62  and  _64
REMARK   30  A    between atoms: _64  and  _65
REMARK   31  A    between atoms: _68  and  _70
REMARK   32  A    between atoms: _70  and  _71
REMARK   33  A    between atoms: _70  and  _73
REMARK   34  A    between atoms: _73  and  _74
REMARK   35  A    between atoms: _80  and  _82
REMARK   36  A    between atoms: _82  and  _83
REMARK   37  A    between atoms: _82  and  _85
REMARK   38  A    between atoms: _85  and  _86
REMARK   39  A    between atoms: _89  and  _91
REMARK   40  A    between atoms: _91  and  _92
REMARK   41  A    between atoms: _91  and  _94
REMARK   42  A    between atoms: _97  and  _99
REMARK   43  A    between atoms: _99  and  _100
REMARK   44  A    between atoms: _99  and  _102
REMARK   45  A    between atoms: _102  and  _103
REMARK   46  A    between atoms: _106  and  _108
REMARK   47  A    between atoms: _108  and  _109
REMARK   48  A    between atoms: _108  and  _111
REMARK   49  A    between atoms: _111  and  _112
REMARK   50  A    between atoms: _117  and  _118
REMARK   51  A    between atoms: _120  and  _122
REMARK   52  A    between atoms: _122  and  _123
REMARK   53  A    between atoms: _122  and  _125
REMARK   54  A    between atoms: _127  and  _129
REMARK   55  A    between atoms: _129  and  _130
REMARK   56  A    between atoms: _129  and  _132
REMARK   57  A    between atoms: _132  and  _133
REMARK   58  A    between atoms: _133  and  _134
REMARK   59  A    between atoms: _134  and  _135
REMARK   60  A    between atoms: _144  and  _146
REMARK   61  A    between atoms: _146  and  _147
REMARK   62  A    between atoms: _146  and  _149
REMARK   63  A    between atoms: _149  and  _150
REMARK   64  A    between atoms: _153  and  _155
REMARK   65  A    between atoms: _155  and  _156
REMARK   66  A    between atoms: _155  and  _158
REMARK   67  A    between atoms: _158  and  _159
REMARK   68  A    between atoms: _162  and  _164
REMARK   69  A    between atoms: _164  and  _165
REMARK   70  A    between atoms: _164  and  _167
REMARK   71  A    between atoms: _167  and  _168
REMARK   72  A    between atoms: _171  and  _173
REMARK   73  A    between atoms: _173  and  _174
REMARK   74  A    between atoms: _173  and  _176
REMARK   75  A    between atoms: _179  and  _181
REMARK   76  A    between atoms: _181  and  _182
REMARK   77  A    between atoms: _181  and  _184
REMARK   78  A    between atoms: _184  and  _185
REMARK   79  A    between atoms: _188  and  _190
REMARK   80  A    between atoms: _190  and  _191
REMARK   81  A    between atoms: _190  and  _193
REMARK   82  A    between atoms: _193  and  _194
REMARK   83  A    between atoms: _199  and  _200
REMARK   84  A    between atoms: _202  and  _204
REMARK   85  A    between atoms: _204  and  _205
REMARK   86  A    between atoms: _204  and  _207
REMARK   87  A    between atoms: _209  and  _211
REMARK   88  A    between atoms: _211  and  _212
REMARK   89  A    between atoms: _211  and  _214
REMARK   90  A    between atoms: _217  and  _219
REMARK   91  A    between atoms: _219  and  _220
REMARK   92  A    between atoms: _223  and  _225
REMARK   93  A    between atoms: _225  and  _226
REMARK   94  A    between atoms: _228  and  _230
REMARK   95  A    between atoms: _230  and  _231
REMARK   96  A    between atoms: _230  and  _233
REMARK   97  A    between atoms: _233  and  _234
REMARK   98  A    between atoms: _237  and  _239
REMARK   99  A    between atoms: _239  and  _240
REMARK  100  A    between atoms: _239  and  _242
REMARK  101  A    between atoms: _245  and  _247
REMARK  102  A    between atoms: _247  and  _248
REMARK  103  A    between atoms: _250  and  _252
REMARK  104  A    between atoms: _252  and  _253
REMARK  105  A    between atoms: _252  and  _255
REMARK  106  A    between atoms: _255  and  _256
REMARK  107  A    between atoms: _256  and  _257
REMARK  108  A    between atoms: _260  and  _262
REMARK  109  A    between atoms: _262  and  _263
REMARK  110  A    between atoms: _262  and  _265
REMARK  111  A    between atoms: _268  and  _270
REMARK  112  A    between atoms: _270  and  _271
REMARK  113  A    between atoms: _270  and  _273
REMARK  114  A    between atoms: _273  and  _274
REMARK  115  A    between atoms: _277  and  _279
REMARK  116  A    between atoms: _279  and  _280
REMARK  117  A    between atoms: _279  and  _282
REMARK  118  A    between atoms: _282  and  _283
REMARK  119  A    between atoms: _286  and  _288
REMARK  120  A    between atoms: _288  and  _289
REMARK  121  A    between atoms: _288  and  _291
REMARK  122  A    between atoms: _291  and  _292
REMARK  123  A    between atoms: _295  and  _297
REMARK  124  A    between atoms: _297  and  _298
REMARK  125  A    between atoms: _297  and  _300
REMARK  126  A    between atoms: _300  and  _301
REMARK  127  A    between atoms: _304  and  _306
REMARK  128  A    between atoms: _306  and  _307
REMARK  129  A    between atoms: _306  and  _309
REMARK  130  A    between atoms: _309  and  _310
REMARK  131  A    between atoms: _312  and  _314
REMARK  132  A    between atoms: _314  and  _315
REMARK  133  A    between atoms: _314  and  _317
REMARK  134  A    between atoms: _317  and  _318
REMARK  135  A    between atoms: _321  and  _323
REMARK  136  A    between atoms: _323  and  _324
REMARK  137  A    between atoms: _323  and  _326
REMARK  138  A    between atoms: _326  and  _327
REMARK  139  A    between atoms: _332  and  _333
REMARK  140  A    between atoms: _335  and  _337
REMARK  141  A    between atoms: _337  and  _338
REMARK  142  A    between atoms: _337  and  _340
REMARK  143  A    between atoms: _343  and  _345
REMARK  144  A    between atoms: _345  and  _346
REMARK  145  A    between atoms: _349  and  _351
REMARK  146  A    between atoms: _351  and  _352
REMARK  147  A    between atoms: _351  and  _354
REMARK  148  A    between atoms: _354  and  _355
REMARK  149  A    between atoms: _355  and  _356
REMARK  150  A    between atoms: _356  and  _357
REMARK  151  A    between atoms: _366  and  _368
REMARK  152  A    between atoms: _368  and  _369
REMARK  153  A    between atoms: _368  and  _371
REMARK  154  A    between atoms: _371  and  _372
REMARK  155  A    between atoms: _372  and  _373
REMARK  156  A    between atoms: _373  and  _374
REMARK  157  A    between atoms: _383  and  _385
REMARK  158  A    between atoms: _385  and  _386
REMARK  159  A    between atoms: _385  and  _388
REMARK  160  A    between atoms: _388  and  _389
REMARK  161  A    between atoms: _392  and  _394
REMARK  162  A    between atoms: _394  and  _395
REMARK  163  A    between atoms: _397  and  _399
REMARK  164  A    between atoms: _399  and  _400
REMARK  165  A    between atoms: _399  and  _402
REMARK  166  A    between atoms: _402  and  _403
REMARK  167  A    between atoms: _403  and  _404
REMARK  168  A    between atoms: _407  and  _409
REMARK  169  A    between atoms: _409  and  _410
REMARK  170  A    between atoms: _409  and  _412
REMARK  171  A    between atoms: _412  and  _413
REMARK  172  A    between atoms: _415  and  _417
REMARK  173  A    between atoms: _417  and  _418
REMARK  174  A    between atoms: _417  and  _420
REMARK  175  A    between atoms: _420  and  _421
REMARK  176  A    between atoms: _424  and  _426
REMARK  177  A    between atoms: _426  and  _427
REMARK  178  A    between atoms: _426  and  _429
REMARK  179  A    between atoms: _429  and  _430
REMARK  180  A    between atoms: _430  and  _431
REMARK  181  A    between atoms: _436  and  _438
REMARK  182  A    between atoms: _438  and  _439
REMARK  183  A    between atoms: _438  and  _441
REMARK  184  A    between atoms: _441  and  _442
REMARK  185  A    between atoms: _445  and  _447
REMARK  186  A    between atoms: _447  and  _448
REMARK  187  A    between atoms: _447  and  _450
REMARK  188  A    between atoms: _450  and  _451
REMARK  189  A    between atoms: _454  and  _456
REMARK  190  A    between atoms: _456  and  _457
REMARK  191  A    between atoms: _456  and  _459
REMARK  192  A    between atoms: _459  and  _460
REMARK  193  A    between atoms: _460  and  _461
REMARK  194  A    between atoms: _460  and  _462
REMARK  195  A    between atoms: _461  and  MG_705
REMARK  196  A    between atoms: _465  and  _467
REMARK  197  A    between atoms: _467  and  _468
REMARK  198  A    between atoms: _467  and  _470
REMARK  199  A    between atoms: _470  and  _471
REMARK  200  A    between atoms: _474  and  _476
REMARK  201  A    between atoms: _476  and  _477
REMARK  202  A    between atoms: _476  and  _479
REMARK  203  A    between atoms: _479  and  _480
REMARK  204  A    between atoms: _480  and  _481
REMARK  205  A    between atoms: _481  and  _482
REMARK  206  A    between atoms: _491  and  _493
REMARK  207  A    between atoms: _493  and  _494
REMARK  208  A    between atoms: _493  and  _496
REMARK  209  A    between atoms: _496  and  _497
REMARK  210  A    between atoms: _497  and  _499
REMARK  211  A    between atoms: _499  and  MG_705
REMARK  212  A    between atoms: _500  and  _502
REMARK  213  A    between atoms: _502  and  _503
REMARK  214  A    between atoms: _502  and  _505
REMARK  215  A    between atoms: _505  and  _506
REMARK  216  A    between atoms: _506  and  _507
REMARK  217  A    between atoms: _510  and  _512
REMARK  218  A    between atoms: _512  and  _513
REMARK  219  A    between atoms: _512  and  _515
REMARK  220  A    between atoms: _515  and  _516
REMARK  221  A    between atoms: _519  and  _521
REMARK  222  A    between atoms: _521  and  _522
REMARK  223  A    between atoms: _521  and  _524
REMARK  224  A    between atoms: _524  and  _525
REMARK  225  A    between atoms: _530  and  _532
REMARK  226  A    between atoms: _532  and  _533
REMARK  227  A    between atoms: _532  and  _535
REMARK  228  A    between atoms: _535  and  _536
REMARK  229  A    between atoms: _536  and  _537
REMARK  230  A    between atoms: _537  and  _538
REMARK  231  A    between atoms: _547  and  _549
REMARK  232  A    between atoms: _549  and  _550
REMARK  233  A    between atoms: _549  and  _552
REMARK  234  A    between atoms: _552  and  _553
REMARK  235  A    between atoms: _558  and  _559
REMARK  236  A    between atoms: _561  and  _563
REMARK  237  A    between atoms: _563  and  _564
REMARK  238  A    between atoms: _563  and  _566
REMARK  239  A    between atoms: _569  and  _571
REMARK  240  A    between atoms: _571  and  _572
REMARK  241  A    between atoms: _571  and  _574
REMARK  242  A    between atoms: _574  and  _575
REMARK  243  A    between atoms: _575  and  _576
REMARK  244  A    between atoms: _578  and  _580
REMARK  245  A    between atoms: _580  and  _581
REMARK  246  A    between atoms: _580  and  _583
REMARK  247  A    between atoms: _583  and  _584
REMARK  248  A    between atoms: _587  and  _589
REMARK  249  A    between atoms: _589  and  _590
REMARK  250  A    between atoms: _589  and  _592
REMARK  251  A    between atoms: _595  and  _597
REMARK  252  A    between atoms: _597  and  _598
REMARK  253  A    between atoms: _597  and  _600
REMARK  254  A    between atoms: _600  and  _601
REMARK  255  A    between atoms: _607  and  _609
REMARK  256  A    between atoms: _609  and  _610
REMARK  257  A    between atoms: _613  and  _615
REMARK  258  A    between atoms: _615  and  _616
REMARK  259  A    between atoms: _615  and  _618
REMARK  260  A    between atoms: _618  and  _619
REMARK  261  A    between atoms: _619  and  _620
REMARK  262  A    between atoms: _625  and  _627
REMARK  263  A    between atoms: _627  and  _628
REMARK  264  A    between atoms: _627  and  _630
REMARK  265  A    between atoms: _630  and  _631
REMARK  266  A    between atoms: _634  and  _636
REMARK  267  A    between atoms: _636  and  _637
REMARK  268  A    between atoms: _636  and  _639
REMARK  269  A    between atoms: _639  and  _640
REMARK  270  A    between atoms: _643  and  _645
REMARK  271  A    between atoms: _645  and  _646
REMARK  272  A    between atoms: _645  and  _648
REMARK  273  A    between atoms: _648  and  _649
REMARK  274  A    between atoms: _649  and  _650
REMARK  275  A    between atoms: _653  and  _655
REMARK  276  A    between atoms: _655  and  _656
REMARK  277  A    between atoms: _659  and  _661
REMARK  278  A    between atoms: _661  and  _662
REMARK  279  A    between atoms: _665  and  _667
REMARK  280  A    between atoms: _667  and  _668
REMARK  281  A    between atoms: _667  and  _670
REMARK  282  A    between atoms: _670  and  _671
REMARK  283  A    between atoms: _676  and  _677
REMARK  284  A    between atoms: _679  and  _681
REMARK  285  A    between atoms: _681  and  _682
REMARK  286  A    between atoms: _681  and  _684
REMARK  287  A    between atoms: _684  and  _685
REMARK  288  A    between atoms: _688  and  _690
REMARK  289  A    between atoms: _690  and  _691
REMARK  290  A    between atoms: _690  and  _693
REMARK  291  A    between atoms: _693  and  _694
REMARK  292  A    between atoms: _694  and  _695
REMARK  293  A    between atoms: _695  and  _696
REMARK                            x       y       z     vdW  Elec       q    Type
REMARK                         _______ _______ _______ _____ _____    ______ ____
ROOT
ATOM      1  CA  GLN A   2       8.326  68.951  42.343  0.00  0.00    +0.137 C 
ENDROOT
BRANCH   1   4
ATOM      2  C   ALA A   1       8.261  67.045  43.787  0.00  0.00    +0.238 C 
ATOM      3  O   ALA A   1       9.385  66.700  43.386  0.00  0.00    -0.274 OA
ATOM      4  N   GLN A   2       7.659  68.142  43.349  0.00  0.00    -0.298 N 
ATOM      5  H   GLN A   2       6.727  68.418  43.718  0.00  0.00    +0.150 HD
BRANCH   2   6
ATOM      6  CA  ALA A   1       7.506  66.208  44.795  0.00  0.00    +0.145 C 
ATOM      7  CB  ALA A   1       6.845  65.032  44.066  0.00  0.00    +0.028 C 
BRANCH   6   8
ATOM      8  N   ALA A   1       6.513  66.976  45.554  0.00  0.00    -0.238 NA
ATOM      9  H   ALA A   1       5.511  66.963  45.274  0.00  0.00    +0.142 HD
ENDBRANCH   6   8
ENDBRANCH   2   6
ENDBRANCH   1   4
BRANCH   1  10
ATOM     10  C   GLN A   2       9.790  69.325  42.659  0.00  0.00    +0.227 C 
ATOM     11  O   GLN A   2      10.685  69.077  41.845  0.00  0.00    -0.286 OA
ENDBRANCH   1  10
BRANCH   1  12
ATOM     12  CB  GLN A   2       7.488  70.208  42.061  0.00  0.00    +0.037 C 
BRANCH  12  13
ATOM     13  CG  GLN A   2       6.229  69.911  41.252  0.00  0.00    +0.087 C 
BRANCH  13  14
ATOM     14  CD  GLN A   2       5.316  71.107  41.154  0.00  0.00    +0.219 C 
ATOM     15  OE1 GLN A   2       5.777  72.240  41.116  0.00  0.00    -0.275 OA
ATOM     16  NE2 GLN A   2       4.028  70.861  41.087  0.00  0.00    -0.329 N 
ATOM     17 HE21 GLN A   2       3.683  69.880  41.123  0.00  0.00    +0.145 HD
ATOM     18 HE22 GLN A   2       3.352  71.647  40.998  0.00  0.00    +0.145 HD
ENDBRANCH  13  14
ENDBRANCH  12  13
ENDBRANCH   1  12
TORSDOF 7
REMARK  Name = ../refined-set-2016/2zcr/2zcr_pocket.pdb
REMARK  293 active torsions:
REMARK  status: ('A' for Active; 'I' for Inactive)
REMARK    1  A    between atoms: _1  and  _3
REMARK    2  A    between atoms: _3  and  _4
REMARK    3  A    between atoms: _3  and  _6
REMARK    4  A    between atoms: _6  and  _7
REMARK    5  A    between atoms: _7  and  _8
REMARK    6  A    between atoms: _10  and  _12
REMARK    7  A    between atoms: _12  and  _13
REMARK    8  A    between atoms: _12  and  _15
REMARK    9  A    between atoms: _15  and  _16
REMARK   10  A    between atoms: _21  and  _23
REMARK   11  A    between atoms: _23  and  _24
REMARK   12  A    between atoms: _23  and  _26
REMARK   13  A    between atoms: _26  and  _27
REMARK   14  A    between atoms: _29  and  _31
REMARK   15  A    between atoms: _31  and  _32
REMARK   16  A    between atoms: _31  and  _34
REMARK   17  A    between atoms: _34  and  _35
REMARK   18  A    between atoms: _35  and  _36
REMARK   19  A    between atoms: _36  and  _37
REMARK   20  A    between atoms: _37  and  _38
REMARK   21  A    between atoms: _42  and  _44
REMARK   22  A    between atoms: _44  and  _45
REMARK   23  A    between atoms: _44  and  _47
REMARK   24  A    between atoms: _47  and  _48
REMARK   25  A    between atoms: _50  and  _52
REMARK   26  A    between atoms: _52  and  _53
REMARK   27  A    between atoms: _52  and  _55
REMARK   28  A    between atoms: _55  and  _56
REMARK   29  A    between atoms: _62  and  _64
REMARK   30  A    between atoms: _64  and  _65
REMARK   31  A    between atoms: _68  and  _70
REMARK   32  A    between atoms: _70  and  _71
REMARK   33  A    between atoms: _70  and  _73
REMARK   34  A    between atoms: _73  and  _74
REMARK   35  A    between atoms: _80  and  _82
REMARK   36  A    between atoms: _82  and  _83
REMARK   37  A    between atoms: _82  and  _85
REMARK   38  A    between atoms: _85  and  _86
REMARK   39  A    between atoms: _89  and  _91
REMARK   40  A    between atoms: _91  and  _92
REMARK   41  A    between atoms: _91  and  _94
REMARK   42  A    between atoms: _97  and  _99
REMARK   43  A    between atoms: _99  and  _100
REMARK   44  A    between atoms: _99  and  _102
REMARK   45  A    between atoms: _102  and  _103
REMARK   46  A    between atoms: _106  and  _108
REMARK   47  A    between atoms: _108  and  _109
REMARK   48  A    between atoms: _108  and  _111
REMARK   49  A    between atoms: _111  and  _112
REMARK   50  A    between atoms: _117  and  _118
REMARK   51  A    between atoms: _120  and  _122
REMARK   52  A    between atoms: _122  and  _123
REMARK   53  A    between atoms: _122  and  _125
REMARK   54  A    between atoms: _127  and  _129
REMARK   55  A    between atoms: _129  and  _130
REMARK   56  A    between atoms: _129  and  _132
REMARK   57  A    between atoms: _132  and  _133
REMARK   58  A    between atoms: _133  and  _134
REMARK   59  A    between atoms: _134  and  _135
REMARK   60  A    between atoms: _144  and  _146
REMARK   61  A    between atoms: _146  and  _147
REMARK   62  A    between atoms: _146  and  _149
REMARK   63  A    between atoms: _149  and  _150
REMARK   64  A    between atoms: _153  and  _155
REMARK   65  A    between atoms: _155  and  _156
REMARK   66  A    between atoms: _155  and  _158
REMARK   67  A    between atoms: _158  and  _159
REMARK   68  A    between atoms: _162  and  _164
REMARK   69  A    between atoms: _164  and  _165
REMARK   70  A    between atoms: _164  and  _167
REMARK   71  A    between atoms: _167  and  _168
REMARK   72  A    between atoms: _171  and  _173
REMARK   73  A    between atoms: _173  and  _174
REMARK   74  A    between atoms: _173  and  _176
REMARK   75  A    between atoms: _179  and  _181
REMARK   76  A    between atoms: _181  and  _182
REMARK   77  A    between atoms: _181  and  _184
REMARK   78  A    between atoms: _184  and  _185
REMARK   79  A    between atoms: _188  and  _190
REMARK   80  A    between atoms: _190  and  _191
REMARK   81  A    between atoms: _190  and  _193
REMARK   82  A    between atoms: _193  and  _194
REMARK   83  A    between atoms: _199  and  _200
REMARK   84  A    between atoms: _202  and  _204
REMARK   85  A    between atoms: _204  and  _205
REMARK   86  A    between atoms: _204  and  _207
REMARK   87  A    between atoms: _209  and  _211
REMARK   88  A    between atoms: _211  and  _212
REMARK   89  A    between atoms: _211  and  _214
REMARK   90  A    between atoms: _217  and  _219
REMARK   91  A    between atoms: _219  and  _220
REMARK   92  A    between atoms: _223  and  _225
REMARK   93  A    between atoms: _225  and  _226
REMARK   94  A    between atoms: _228  and  _230
REMARK   95  A    between atoms: _230  and  _231
REMARK   96  A    between atoms: _230  and  _233
REMARK   97  A    between atoms: _233  and  _234
REMARK   98  A    between atoms: _237  and  _239
REMARK   99  A    between atoms: _239  and  _240
REMARK  100  A    between atoms: _239  and  _242
REMARK  101  A    between atoms: _245  and  _247
REMARK  102  A    between atoms: _247  and  _248
REMARK  103  A    between atoms: _250  and  _252
REMARK  104  A    between atoms: _252  and  _253
REMARK  105  A    between atoms: _252  and  _255
REMARK  106  A    between atoms: _255  and  _256
REMARK  107  A    between atoms: _256  and  _257
REMARK  108  A    between atoms: _260  and  _262
REMARK  109  A    between atoms: _262  and  _263
REMARK  110  A    between atoms: _262  and  _265
REMARK  111  A    between atoms: _268  and  _270
REMARK  112  A    between atoms: _270  and  _271
REMARK  113  A    between atoms: _270  and  _273
REMARK  114  A    between atoms: _273  and  _274
REMARK  115  A    between atoms: _277  and  _279
REMARK  116  A    between atoms: _279  and  _280
REMARK  117  A    between atoms: _279  and  _282
REMARK  118  A    between atoms: _282  and  _283
REMARK  119  A    between atoms: _286  and  _288
REMARK  120  A    between atoms: _288  and  _289
REMARK  121  A    between atoms: _288  and  _291
REMARK  122  A    between atoms: _291  and  _292
REMARK  123  A    between atoms: _295  and  _297
REMARK  124  A    between atoms: _297  and  _298
REMARK  125  A    between atoms: _297  and  _300
REMARK  126  A    between atoms: _300  and  _301
REMARK  127  A    between atoms: _304  and  _306
REMARK  128  A    between atoms: _306  and  _307
REMARK  129  A    between atoms: _306  and  _309
REMARK  130  A    between atoms: _309  and  _310
REMARK  131  A    between atoms: _312  and  _314
REMARK  132  A    between atoms: _314  and  _315
REMARK  133  A    between atoms: _314  and  _317
REMARK  134  A    between atoms: _317  and  _318
REMARK  135  A    between atoms: _321  and  _323
REMARK  136  A    between atoms: _323  and  _324
REMARK  137  A    between atoms: _323  and  _326
REMARK  138  A    between atoms: _326  and  _327
REMARK  139  A    between atoms: _332  and  _333
REMARK  140  A    between atoms: _335  and  _337
REMARK  141  A    between atoms: _337  and  _338
REMARK  142  A    between atoms: _337  and  _340
REMARK  143  A    between atoms: _343  and  _345
REMARK  144  A    between atoms: _345  and  _346
REMARK  145  A    between atoms: _349  and  _351
REMARK  146  A    between atoms: _351  and  _352
REMARK  147  A    between atoms: _351  and  _354
REMARK  148  A    between atoms: _354  and  _355
REMARK  149  A    between atoms: _355  and  _356
REMARK  150  A    between atoms: _356  and  _357
REMARK  151  A    between atoms: _366  and  _368
REMARK  152  A    between atoms: _368  and  _369
REMARK  153  A    between atoms: _368  and  _371
REMARK  154  A    between atoms: _371  and  _372
REMARK  155  A    between atoms: _372  and  _373
REMARK  156  A    between atoms: _373  and  _374
REMARK  157  A    between atoms: _383  and  _385
REMARK  158  A    between atoms: _385  and  _386
REMARK  159  A    between atoms: _385  and  _388
REMARK  160  A    between atoms: _388  and  _389
REMARK  161  A    between atoms: _392  and  _394
REMARK  162  A    between atoms: _394  and  _395
REMARK  163  A    between atoms: _397  and  _399
REMARK  164  A    between atoms: _399  and  _400
REMARK  165  A    between atoms: _399  and  _402
REMARK  166  A    between atoms: _402  and  _403
REMARK  167  A    between atoms: _403  and  _404
REMARK  168  A    between atoms: _407  and  _409
REMARK  169  A    between atoms: _409  and  _410
REMARK  170  A    between atoms: _409  and  _412
REMARK  171  A    between atoms: _412  and  _413
REMARK  172  A    between atoms: _415  and  _417
REMARK  173  A    between atoms: _417  and  _418
REMARK  174  A    between atoms: _417  and  _420
REMARK  175  A    between atoms: _420  and  _421
REMARK  176  A    between atoms: _424  and  _426
REMARK  177  A    between atoms: _426  and  _427
REMARK  178  A    between atoms: _426  and  _429
REMARK  179  A    between atoms: _429  and  _430
REMARK  180  A    between atoms: _430  and  _431
REMARK  181  A    between atoms: _436  and  _438
REMARK  182  A    between atoms: _438  and  _439
REMARK  183  A    between atoms: _438  and  _441
REMARK  184  A    between atoms: _441  and  _442
REMARK  185  A    between atoms: _445  and  _447
REMARK  186  A    between atoms: _447  and  _448
REMARK  187  A    between atoms: _447  and  _450
REMARK  188  A    between atoms: _450  and  _451
REMARK  189  A    between atoms: _454  and  _456
REMARK  190  A    between atoms: _456  and  _457
REMARK  191  A    between atoms: _456  and  _459
REMARK  192  A    between atoms: _459  and  _460
REMARK  193  A    between atoms: _460  and  _461
REMARK  194  A    between atoms: _460  and  _462
REMARK  195  A    between atoms: _461  and  MG_705
REMARK  196  A    between atoms: _465  and  _467
REMARK  197  A    between atoms: _467  and  _468
REMARK  198  A    between atoms: _467  and  _470
REMARK  199  A    between atoms: _470  and  _471
REMARK  200  A    between atoms: _474  and  _476
REMARK  201  A    between atoms: _476  and  _477
REMARK  202  A    between atoms: _476  and  _479
REMARK  203  A    between atoms: _479  and  _480
REMARK  204  A    between atoms: _480  and  _481
REMARK  205  A    between atoms: _481  and  _482
REMARK  206  A    between atoms: _491  and  _493
REMARK  207  A    between atoms: _493  and  _494
REMARK  208  A    between atoms: _493  and  _496
REMARK  209  A    between atoms: _496  and  _497
REMARK  210  A    between atoms: _497  and  _499
REMARK  211  A    between atoms: _499  and  MG_705
REMARK  212  A    between atoms: _500  and  _502
REMARK  213  A    between atoms: _502  and  _503
REMARK  214  A    between atoms: _502  and  _505
REMARK  215  A    between atoms: _505  and  _506
REMARK  216  A    between atoms: _506  and  _507
REMARK  217  A    between atoms: _510  and  _512
REMARK  218  A    between atoms: _512  and  _513
REMARK  219  A    between atoms: _512  and  _515
REMARK  220  A    between atoms: _515  and  _516
REMARK  221  A    between atoms: _519  and  _521
REMARK  222  A    between atoms: _521  and  _522
REMARK  223  A    between atoms: _521  and  _524
REMARK  224  A    between atoms: _524  and  _525
REMARK  225  A    between atoms: _530  and  _532
REMARK  226  A    between atoms: _532  and  _533
REMARK  227  A    between atoms: _532  and  _535
REMARK  228  A    between atoms: _535  and  _536
REMARK  229  A    between atoms: _536  and  _537
REMARK  230  A    between atoms: _537  and  _538
REMARK  231  A    between atoms: _547  and  _549
REMARK  232  A    between atoms: _549  and  _550
REMARK  233  A    between atoms: _549  and  _552
REMARK  234  A    between atoms: _552  and  _553
REMARK  235  A    between atoms: _558  and  _559
REMARK  236  A    between atoms: _561  and  _563
REMARK  237  A    between atoms: _563  and  _564
REMARK  238  A    between atoms: _563  and  _566
REMARK  239  A    between atoms: _569  and  _571
REMARK  240  A    between atoms: _571  and  _572
REMARK  241  A    between atoms: _571  and  _574
REMARK  242  A    between atoms: _574  and  _575
REMARK  243  A    between atoms: _575  and  _576
REMARK  244  A    between atoms: _578  and  _580
REMARK  245  A    between atoms: _580  and  _581
REMARK  246  A    between atoms: _580  and  _583
REMARK  247  A    between atoms: _583  and  _584
REMARK  248  A    between atoms: _587  and  _589
REMARK  249  A    between atoms: _589  and  _590
REMARK  250  A    between atoms: _589  and  _592
REMARK  251  A    between atoms: _595  and  _597
REMARK  252  A    between atoms: _597  and  _598
REMARK  253  A    between atoms: _597  and  _600
REMARK  254  A    between atoms: _600  and  _601
REMARK  255  A    between atoms: _607  and  _609
REMARK  256  A    between atoms: _609  and  _610
REMARK  257  A    between atoms: _613  and  _615
REMARK  258  A    between atoms: _615  and  _616
REMARK  259  A    between atoms: _615  and  _618
REMARK  260  A    between atoms: _618  and  _619
REMARK  261  A    between atoms: _619  and  _620
REMARK  262  A    between atoms: _625  and  _627
REMARK  263  A    between atoms: _627  and  _628
REMARK  264  A    between atoms: _627  and  _630
REMARK  265  A    between atoms: _630  and  _631
REMARK  266  A    between atoms: _634  and  _636
REMARK  267  A    between atoms: _636  and  _637
REMARK  268  A    between atoms: _636  and  _639
REMARK  269  A    between atoms: _639  and  _640
REMARK  270  A    between atoms: _643  and  _645
REMARK  271  A    between atoms: _645  and  _646
REMARK  272  A    between atoms: _645  and  _648
REMARK  273  A    between atoms: _648  and  _649
REMARK  274  A    between atoms: _649  and  _650
REMARK  275  A    between atoms: _653  and  _655
REMARK  276  A    between atoms: _655  and  _656
REMARK  277  A    between atoms: _659  and  _661
REMARK  278  A    between atoms: _661  and  _662
REMARK  279  A    between atoms: _665  and  _667
REMARK  280  A    between atoms: _667  and  _668
REMARK  281  A    between atoms: _667  and  _670
REMARK  282  A    between atoms: _670  and  _671
REMARK  283  A    between atoms: _676  and  _677
REMARK  284  A    between atoms: _679  and  _681
REMARK  285  A    between atoms: _681  and  _682
REMARK  286  A    between atoms: _681  and  _684
REMARK  287  A    between atoms: _684  and  _685
REMARK  288  A    between atoms: _688  and  _690
REMARK  289  A    between atoms: _690  and  _691
REMARK  290  A    between atoms: _690  and  _693
REMARK  291  A    between atoms: _693  and  _694
REMARK  292  A    between atoms: _694  and  _695
REMARK  293  A    between atoms: _695  and  _696
REMARK                            x       y       z     vdW  Elec       q    Type
REMARK                         _______ _______ _______ _____ _____    ______ ____
ROOT
ATOM      1  CA  ILE A   2      12.236  65.577  41.284  0.00  0.00    +0.148 C 
ENDROOT
BRANCH   1   4
ATOM      2  C   ILE A   1      12.905  66.090  43.560  0.00  0.00    +0.238 C 
ATOM      3  O   ILE A   1      14.023  65.628  43.380  0.00  0.00    -0.274 OA
ATOM      4  N   ILE A   2      11.971  66.116  42.616  0.00  0.00    -0.297 N 
ATOM      5  H   ILE A   2      11.039  66.525  42.828  0.00  0.00    +0.150 HD
BRANCH   2   6
ATOM      6  CA  ILE A   1      12.522  66.673  44.911  0.00  0.00    +0.145 C 
BRANCH   6   7
ATOM      7  N   ILE A   1      11.786  67.931  44.714  0.00  0.00    -0.238 NA
ATOM      8  H   ILE A   1      10.782  67.978  44.980  0.00  0.00    +0.142 HD
ENDBRANCH   6   7
BRANCH   6   9
ATOM      9  CB  ILE A   1      11.647  65.619  45.696  0.00  0.00    +0.025 C 
ATOM     10  CG2 ILE A   1      12.118  64.195  45.437  0.00  0.00    +0.002 C 
BRANCH   9  11
ATOM     11  CG1 ILE A   1      11.758  65.852  47.206  0.00  0.00    +0.002 C 
ATOM     12  CD1 ILE A   1      11.432  67.231  47.634  0.00  0.00    +0.000 C 
ENDBRANCH   9  11
ENDBRANCH   6   9
ENDBRANCH   2   6
ENDBRANCH   1   4
BRANCH   1  13
ATOM     13  C   ILE A   2      13.205  66.466  40.585  0.00  0.00    +0.241 C 
ATOM     14  N   GLU A   3      13.062  67.778  40.774  0.00  0.00    -0.298 N 
ATOM     15  H   GLU A   3      12.291  68.150  41.364  0.00  0.00    +0.150 HD
ATOM     16  O   ILE A   2      14.105  65.988  39.889  0.00  0.00    -0.273 OA
BRANCH  14  17
ATOM     17  CA  GLU A   3      14.018  68.683  40.130  0.00  0.00    +0.137 C 
BRANCH  17  18
ATOM     18  C   GLU A   3      15.431  68.408  40.673  0.00  0.00    +0.227 C 
ATOM     19  O   GLU A   3      16.407  68.371  39.942  0.00  0.00    -0.286 OA
ENDBRANCH  17  18
BRANCH  17  20
ATOM     20  CB  GLU A   3      13.642  70.138  40.397  0.00  0.00    +0.039 C 
BRANCH  20  21
ATOM     21  CG  GLU A   3      14.482  71.064  39.574  0.00  0.00    +0.116 C 
BRANCH  21  22
ATOM     22  CD  GLU A   3      13.980  72.510  39.577  0.00  0.00    +0.365 C 
ATOM     23  OE2 GLU A   3      12.779  72.754  39.837  0.00  0.00    -0.246 OA
ATOM     24  OE1 GLU A   3      14.812  73.389  39.278  0.00  0.00    -0.246 OA
ENDBRANCH  21  22
ENDBRANCH  20  21
ENDBRANCH  17  20
ENDBRANCH  14  17
ENDBRANCH   1  13
BRANCH   1  25
ATOM     25  CB  ILE A   2      10.953  65.440  40.470  0.00  0.00    +0.027 C 
ATOM     26  CG2 ILE A   2      11.282  65.081  39.042  0.00  0.00    +0.002 C 
BRANCH  25  27
ATOM     27  CG1 ILE A   2      10.079  64.367  41.130  0.00  0.00    +0.002 C 
ATOM     28  CD1 ILE A   2       8.639  64.316  40.639  0.00  0.00    +0.000 C 
ENDBRANCH  25  27
ENDBRANCH   1  25
TORSDOF 13
REMARK  Name = ../refined-set-2016/2zcr/2zcr_pocket.pdb
REMARK  293 active torsions:
REMARK  status: ('A' for Active; 'I' for Inactive)
REMARK    1  A    between atoms: _1  and  _3
REMARK    2  A    between atoms: _3  and  _4
REMARK    3  A    between atoms: _3  and  _6
REMARK    4  A    between atoms: _6  and  _7
REMARK    5  A    between atoms: _7  and  _8
REMARK    6  A    between atoms: _10  and  _12
REMARK    7  A    between atoms: _12  and  _13
REMARK    8  A    between atoms: _12  and  _15
REMARK    9  A    between atoms: _15  and  _16
REMARK   10  A    between atoms: _21  and  _23
REMARK   11  A    between atoms: _23  and  _24
REMARK   12  A    between atoms: _23  and  _26
REMARK   13  A    between atoms: _26  and  _27
REMARK   14  A    between atoms: _29  and  _31
REMARK   15  A    between atoms: _31  and  _32
REMARK   16  A    between atoms: _31  and  _34
REMARK   17  A    between atoms: _34  and  _35
REMARK   18  A    between atoms: _35  and  _36
REMARK   19  A    between atoms: _36  and  _37
REMARK   20  A    between atoms: _37  and  _38
REMARK   21  A    between atoms: _42  and  _44
REMARK   22  A    between atoms: _44  and  _45
REMARK   23  A    between atoms: _44  and  _47
REMARK   24  A    between atoms: _47  and  _48
REMARK   25  A    between atoms: _50  and  _52
REMARK   26  A    between atoms: _52  and  _53
REMARK   27  A    between atoms: _52  and  _55
REMARK   28  A    between atoms: _55  and  _56
REMARK   29  A    between atoms: _62  and  _64
REMARK   30  A    between atoms: _64  and  _65
REMARK   31  A    between atoms: _68  and  _70
REMARK   32  A    between atoms: _70  and  _71
REMARK   33  A    between atoms: _70  and  _73
REMARK   34  A    between atoms: _73  and  _74
REMARK   35  A    between atoms: _80  and  _82
REMARK   36  A    between atoms: _82  and  _83
REMARK   37  A    between atoms: _82  and  _85
REMARK   38  A    between atoms: _85  and  _86
REMARK   39  A    between atoms: _89  and  _91
REMARK   40  A    between atoms: _91  and  _92
REMARK   41  A    between atoms: _91  and  _94
REMARK   42  A    between atoms: _97  and  _99
REMARK   43  A    between atoms: _99  and  _100
REMARK   44  A    between atoms: _99  and  _102
REMARK   45  A    between atoms: _102  and  _103
REMARK   46  A    between atoms: _106  and  _108
REMARK   47  A    between atoms: _108  and  _109
REMARK   48  A    between atoms: _108  and  _111
REMARK   49  A    between atoms: _111  and  _112
REMARK   50  A    between atoms: _117  and  _118
REMARK   51  A    between atoms: _120  and  _122
REMARK   52  A    between atoms: _122  and  _123
REMARK   53  A    between atoms: _122  and  _125
REMARK   54  A    between atoms: _127  and  _129
REMARK   55  A    between atoms: _129  and  _130
REMARK   56  A    between atoms: _129  and  _132
REMARK   57  A    between atoms: _132  and  _133
REMARK   58  A    between atoms: _133  and  _134
REMARK   59  A    between atoms: _134  and  _135
REMARK   60  A    between atoms: _144  and  _146
REMARK   61  A    between atoms: _146  and  _147
REMARK   62  A    between atoms: _146  and  _149
REMARK   63  A    between atoms: _149  and  _150
REMARK   64  A    between atoms: _153  and  _155
REMARK   65  A    between atoms: _155  and  _156
REMARK   66  A    between atoms: _155  and  _158
REMARK   67  A    between atoms: _158  and  _159
REMARK   68  A    between atoms: _162  and  _164
REMARK   69  A    between atoms: _164  and  _165
REMARK   70  A    between atoms: _164  and  _167
REMARK   71  A    between atoms: _167  and  _168
REMARK   72  A    between atoms: _171  and  _173
REMARK   73  A    between atoms: _173  and  _174
REMARK   74  A    between atoms: _173  and  _176
REMARK   75  A    between atoms: _179  and  _181
REMARK   76  A    between atoms: _181  and  _182
REMARK   77  A    between atoms: _181  and  _184
REMARK   78  A    between atoms: _184  and  _185
REMARK   79  A    between atoms: _188  and  _190
REMARK   80  A    between atoms: _190  and  _191
REMARK   81  A    between atoms: _190  and  _193
REMARK   82  A    between atoms: _193  and  _194
REMARK   83  A    between atoms: _199  and  _200
REMARK   84  A    between atoms: _202  and  _204
REMARK   85  A    between atoms: _204  and  _205
REMARK   86  A    between atoms: _204  and  _207
REMARK   87  A    between atoms: _209  and  _211
REMARK   88  A    between atoms: _211  and  _212
REMARK   89  A    between atoms: _211  and  _214
REMARK   90  A    between atoms: _217  and  _219
REMARK   91  A    between atoms: _219  and  _220
REMARK   92  A    between atoms: _223  and  _225
REMARK   93  A    between atoms: _225  and  _226
REMARK   94  A    between atoms: _228  and  _230
REMARK   95  A    between atoms: _230  and  _231
REMARK   96  A    between atoms: _230  and  _233
REMARK   97  A    between atoms: _233  and  _234
REMARK   98  A    between atoms: _237  and  _239
REMARK   99  A    between atoms: _239  and  _240
REMARK  100  A    between atoms: _239  and  _242
REMARK  101  A    between atoms: _245  and  _247
REMARK  102  A    between atoms: _247  and  _248
REMARK  103  A    between atoms: _250  and  _252
REMARK  104  A    between atoms: _252  and  _253
REMARK  105  A    between atoms: _252  and  _255
REMARK  106  A    between atoms: _255  and  _256
REMARK  107  A    between atoms: _256  and  _257
REMARK  108  A    between atoms: _260  and  _262
REMARK  109  A    between atoms: _262  and  _263
REMARK  110  A    between atoms: _262  and  _265
REMARK  111  A    between atoms: _268  and  _270
REMARK  112  A    between atoms: _270  and  _271
REMARK  113  A    between atoms: _270  and  _273
REMARK  114  A    between atoms: _273  and  _274
REMARK  115  A    between atoms: _277  and  _279
REMARK  116  A    between atoms: _279  and  _280
REMARK  117  A    between atoms: _279  and  _282
REMARK  118  A    between atoms: _282  and  _283
REMARK  119  A    between atoms: _286  and  _288
REMARK  120  A    between atoms: _288  and  _289
REMARK  121  A    between atoms: _288  and  _291
REMARK  122  A    between atoms: _291  and  _292
REMARK  123  A    between atoms: _295  and  _297
REMARK  124  A    between atoms: _297  and  _298
REMARK  125  A    between atoms: _297  and  _300
REMARK  126  A    between atoms: _300  and  _301
REMARK  127  A    between atoms: _304  and  _306
REMARK  128  A    between atoms: _306  and  _307
REMARK  129  A    between atoms: _306  and  _309
REMARK  130  A    between atoms: _309  and  _310
REMARK  131  A    between atoms: _312  and  _314
REMARK  132  A    between atoms: _314  and  _315
REMARK  133  A    between atoms: _314  and  _317
REMARK  134  A    between atoms: _317  and  _318
REMARK  135  A    between atoms: _321  and  _323
REMARK  136  A    between atoms: _323  and  _324
REMARK  137  A    between atoms: _323  and  _326
REMARK  138  A    between atoms: _326  and  _327
REMARK  139  A    between atoms: _332  and  _333
REMARK  140  A    between atoms: _335  and  _337
REMARK  141  A    between atoms: _337  and  _338
REMARK  142  A    between atoms: _337  and  _340
REMARK  143  A    between atoms: _343  and  _345
REMARK  144  A    between atoms: _345  and  _346
REMARK  145  A    between atoms: _349  and  _351
REMARK  146  A    between atoms: _351  and  _352
REMARK  147  A    between atoms: _351  and  _354
REMARK  148  A    between atoms: _354  and  _355
REMARK  149  A    between atoms: _355  and  _356
REMARK  150  A    between atoms: _356  and  _357
REMARK  151  A    between atoms: _366  and  _368
REMARK  152  A    between atoms: _368  and  _369
REMARK  153  A    between atoms: _368  and  _371
REMARK  154  A    between atoms: _371  and  _372
REMARK  155  A    between atoms: _372  and  _373
REMARK  156  A    between atoms: _373  and  _374
REMARK  157  A    between atoms: _383  and  _385
REMARK  158  A    between atoms: _385  and  _386
REMARK  159  A    between atoms: _385  and  _388
REMARK  160  A    between atoms: _388  and  _389
REMARK  161  A    between atoms: _392  and  _394
REMARK  162  A    between atoms: _394  and  _395
REMARK  163  A    between atoms: _397  and  _399
REMARK  164  A    between atoms: _399  and  _400
REMARK  165  A    between atoms: _399  and  _402
REMARK  166  A    between atoms: _402  and  _403
REMARK  167  A    between atoms: _403  and  _404
REMARK  168  A    between atoms: _407  and  _409
REMARK  169  A    between atoms: _409  and  _410
REMARK  170  A    between atoms: _409  and  _412
REMARK  171  A    between atoms: _412  and  _413
REMARK  172  A    between atoms: _415  and  _417
REMARK  173  A    between atoms: _417  and  _418
REMARK  174  A    between atoms: _417  and  _420
REMARK  175  A    between atoms: _420  and  _421
REMARK  176  A    between atoms: _424  and  _426
REMARK  177  A    between atoms: _426  and  _427
REMARK  178  A    between atoms: _426  and  _429
REMARK  179  A    between atoms: _429  and  _430
REMARK  180  A    between atoms: _430  and  _431
REMARK  181  A    between atoms: _436  and  _438
REMARK  182  A    between atoms: _438  and  _439
REMARK  183  A    between atoms: _438  and  _441
REMARK  184  A    between atoms: _441  and  _442
REMARK  185  A    between atoms: _445  and  _447
REMARK  186  A    between atoms: _447  and  _448
REMARK  187  A    between atoms: _447  and  _450
REMARK  188  A    between atoms: _450  and  _451
REMARK  189  A    between atoms: _454  and  _456
REMARK  190  A    between atoms: _456  and  _457
REMARK  191  A    between atoms: _456  and  _459
REMARK  192  A    between atoms: _459  and  _460
REMARK  193  A    between atoms: _460  and  _461
REMARK  194  A    between atoms: _460  and  _462
REMARK  195  A    between atoms: _461  and  MG_705
REMARK  196  A    between atoms: _465  and  _467
REMARK  197  A    between atoms: _467  and  _468
REMARK  198  A    between atoms: _467  and  _470
REMARK  199  A    between atoms: _470  and  _471
REMARK  200  A    between atoms: _474  and  _476
REMARK  201  A    between atoms: _476  and  _477
REMARK  202  A    between atoms: _476  and  _479
REMARK  203  A    between atoms: _479  and  _480
REMARK  204  A    between atoms: _480  and  _481
REMARK  205  A    between atoms: _481  and  _482
REMARK  206  A    between atoms: _491  and  _493
REMARK  207  A    between atoms: _493  and  _494
REMARK  208  A    between atoms: _493  and  _496
REMARK  209  A    between atoms: _496  and  _497
REMARK  210  A    between atoms: _497  and  _499
REMARK  211  A    between atoms: _499  and  MG_705
REMARK  212  A    between atoms: _500  and  _502
REMARK  213  A    between atoms: _502  and  _503
REMARK  214  A    between atoms: _502  and  _505
REMARK  215  A    between atoms: _505  and  _506
REMARK  216  A    between atoms: _506  and  _507
REMARK  217  A    between atoms: _510  and  _512
REMARK  218  A    between atoms: _512  and  _513
REMARK  219  A    between atoms: _512  and  _515
REMARK  220  A    between atoms: _515  and  _516
REMARK  221  A    between atoms: _519  and  _521
REMARK  222  A    between atoms: _521  and  _522
REMARK  223  A    between atoms: _521  and  _524
REMARK  224  A    between atoms: _524  and  _525
REMARK  225  A    between atoms: _530  and  _532
REMARK  226  A    between atoms: _532  and  _533
REMARK  227  A    between atoms: _532  and  _535
REMARK  228  A    between atoms: _535  and  _536
REMARK  229  A    between atoms: _536  and  _537
REMARK  230  A    between atoms: _537  and  _538
REMARK  231  A    between atoms: _547  and  _549
REMARK  232  A    between atoms: _549  and  _550
REMARK  233  A    between atoms: _549  and  _552
REMARK  234  A    between atoms: _552  and  _553
REMARK  235  A    between atoms: _558  and  _559
REMARK  236  A    between atoms: _561  and  _563
REMARK  237  A    between atoms: _563  and  _564
REMARK  238  A    between atoms: _563  and  _566
REMARK  239  A    between atoms: _569  and  _571
REMARK  240  A    between atoms: _571  and  _572
REMARK  241  A    between atoms: _571  and  _574
REMARK  242  A    between atoms: _574  and  _575
REMARK  243  A    between atoms: _575  and  _576
REMARK  244  A    between atoms: _578  and  _580
REMARK  245  A    between atoms: _580  and  _581
REMARK  246  A    between atoms: _580  and  _583
REMARK  247  A    between atoms: _583  and  _584
REMARK  248  A    between atoms: _587  and  _589
REMARK  249  A    between atoms: _589  and  _590
REMARK  250  A    between atoms: _589  and  _592
REMARK  251  A    between atoms: _595  and  _597
REMARK  252  A    between atoms: _597  and  _598
REMARK  253  A    between atoms: _597  and  _600
REMARK  254  A    between atoms: _600  and  _601
REMARK  255  A    between atoms: _607  and  _609
REMARK  256  A    between atoms: _609  and  _610
REMARK  257  A    between atoms: _613  and  _615
REMARK  258  A    between atoms: _615  and  _616
REMARK  259  A    between atoms: _615  and  _618
REMARK  260  A    between atoms: _618  and  _619
REMARK  261  A    between atoms: _619  and  _620
REMARK  262  A    between atoms: _625  and  _627
REMARK  263  A    between atoms: _627  and  _628
REMARK  264  A    between atoms: _627  and  _630
REMARK  265  A    between atoms: _630  and  _631
REMARK  266  A    between atoms: _634  and  _636
REMARK  267  A    between atoms: _636  and  _637
REMARK  268  A    between atoms: _636  and  _639
REMARK  269  A    between atoms: _639  and  _640
REMARK  270  A    between atoms: _643  and  _645
REMARK  271  A    between atoms: _645  and  _646
REMARK  272  A    between atoms: _645  and  _648
REMARK  273  A    between atoms: _648  and  _649
REMARK  274  A    between atoms: _649  and  _650
REMARK  275  A    between atoms: _653  and  _655
REMARK  276  A    between atoms: _655  and  _656
REMARK  277  A    between atoms: _659  and  _661
REMARK  278  A    between atoms: _661  and  _662
REMARK  279  A    between atoms: _665  and  _667
REMARK  280  A    between atoms: _667  and  _668
REMARK  281  A    between atoms: _667  and  _670
REMARK  282  A    between atoms: _670  and  _671
REMARK  283  A    between atoms: _676  and  _677
REMARK  284  A    between atoms: _679  and  _681
REMARK  285  A    between atoms: _681  and  _682
REMARK  286  A    between atoms: _681  and  _684
REMARK  287  A    between atoms: _684  and  _685
REMARK  288  A    between atoms: _688  and  _690
REMARK  289  A    between atoms: _690  and  _691
REMARK  290  A    between atoms: _690  and  _693
REMARK  291  A    between atoms: _693  and  _694
REMARK  292  A    between atoms: _694  and  _695
REMARK  293  A    between atoms: _695  and  _696
REMARK                            x       y       z     vdW  Elec       q    Type
REMARK                         _______ _______ _______ _____ _____    ______ ____
ROOT
ATOM      1  C   ALA A   1      17.666  64.429  40.173  0.00  0.00    +0.238 C 
ATOM      2  O   ALA A   1      18.745  63.939  39.862  0.00  0.00    -0.274 OA
ATOM      3  N   ALA A   2      16.917  65.122  39.322  0.00  0.00    -0.298 N 
ATOM      4  H   ALA A   2      16.012  65.518  39.649  0.00  0.00    +0.150 HD
ENDROOT
BRANCH   1   5
ATOM      5  CA  ALA A   1      17.109  64.266  41.557  0.00  0.00    +0.145 C 
ATOM      6  CB  ALA A   1      15.950  63.197  41.529  0.00  0.00    +0.028 C 
BRANCH   5   7
ATOM      7  N   ALA A   1      16.618  65.571  42.047  0.00  0.00    -0.238 NA
ATOM      8  H   ALA A   1      15.640  65.661  42.390  0.00  0.00    +0.142 HD
ENDBRANCH   5   7
ENDBRANCH   1   5
BRANCH   3   9
ATOM      9  CA  ALA A   2      17.333  65.342  37.938  0.00  0.00    +0.137 C 
ATOM     10  CB  ALA A   2      16.163  65.990  37.127  0.00  0.00    +0.030 C 
BRANCH   9  11
ATOM     11  C   ALA A   2      18.583  66.216  37.840  0.00  0.00    +0.227 C 
ATOM     12  O   ALA A   2      19.495  65.930  37.063  0.00  0.00    -0.286 OA
ENDBRANCH   9  11
ENDBRANCH   3   9
TORSDOF 4
REMARK  Name = ../refined-set-2016/2zcr/2zcr_pocket.pdb
REMARK  293 active torsions:
REMARK  status: ('A' for Active; 'I' for Inactive)
REMARK    1  A    between atoms: _1  and  _3
REMARK    2  A    between atoms: _3  and  _4
REMARK    3  A    between atoms: _3  and  _6
REMARK    4  A    between atoms: _6  and  _7
REMARK    5  A    between atoms: _7  and  _8
REMARK    6  A    between atoms: _10  and  _12
REMARK    7  A    between atoms: _12  and  _13
REMARK    8  A    between atoms: _12  and  _15
REMARK    9  A    between atoms: _15  and  _16
REMARK   10  A    between atoms: _21  and  _23
REMARK   11  A    between atoms: _23  and  _24
REMARK   12  A    between atoms: _23  and  _26
REMARK   13  A    between atoms: _26  and  _27
REMARK   14  A    between atoms: _29  and  _31
REMARK   15  A    between atoms: _31  and  _32
REMARK   16  A    between atoms: _31  and  _34
REMARK   17  A    between atoms: _34  and  _35
REMARK   18  A    between atoms: _35  and  _36
REMARK   19  A    between atoms: _36  and  _37
REMARK   20  A    between atoms: _37  and  _38
REMARK   21  A    between atoms: _42  and  _44
REMARK   22  A    between atoms: _44  and  _45
REMARK   23  A    between atoms: _44  and  _47
REMARK   24  A    between atoms: _47  and  _48
REMARK   25  A    between atoms: _50  and  _52
REMARK   26  A    between atoms: _52  and  _53
REMARK   27  A    between atoms: _52  and  _55
REMARK   28  A    between atoms: _55  and  _56
REMARK   29  A    between atoms: _62  and  _64
REMARK   30  A    between atoms: _64  and  _65
REMARK   31  A    between atoms: _68  and  _70
REMARK   32  A    between atoms: _70  and  _71
REMARK   33  A    between atoms: _70  and  _73
REMARK   34  A    between atoms: _73  and  _74
REMARK   35  A    between atoms: _80  and  _82
REMARK   36  A    between atoms: _82  and  _83
REMARK   37  A    between atoms: _82  and  _85
REMARK   38  A    between atoms: _85  and  _86
REMARK   39  A    between atoms: _89  and  _91
REMARK   40  A    between atoms: _91  and  _92
REMARK   41  A    between atoms: _91  and  _94
REMARK   42  A    between atoms: _97  and  _99
REMARK   43  A    between atoms: _99  and  _100
REMARK   44  A    between atoms: _99  and  _102
REMARK   45  A    between atoms: _102  and  _103
REMARK   46  A    between atoms: _106  and  _108
REMARK   47  A    between atoms: _108  and  _109
REMARK   48  A    between atoms: _108  and  _111
REMARK   49  A    between atoms: _111  and  _112
REMARK   50  A    between atoms: _117  and  _118
REMARK   51  A    between atoms: _120  and  _122
REMARK   52  A    between atoms: _122  and  _123
REMARK   53  A    between atoms: _122  and  _125
REMARK   54  A    between atoms: _127  and  _129
REMARK   55  A    between atoms: _129  and  _130
REMARK   56  A    between atoms: _129  and  _132
REMARK   57  A    between atoms: _132  and  _133
REMARK   58  A    between atoms: _133  and  _134
REMARK   59  A    between atoms: _134  and  _135
REMARK   60  A    between atoms: _144  and  _146
REMARK   61  A    between atoms: _146  and  _147
REMARK   62  A    between atoms: _146  and  _149
REMARK   63  A    between atoms: _149  and  _150
REMARK   64  A    between atoms: _153  and  _155
REMARK   65  A    between atoms: _155  and  _156
REMARK   66  A    between atoms: _155  and  _158
REMARK   67  A    between atoms: _158  and  _159
REMARK   68  A    between atoms: _162  and  _164
REMARK   69  A    between atoms: _164  and  _165
REMARK   70  A    between atoms: _164  and  _167
REMARK   71  A    between atoms: _167  and  _168
REMARK   72  A    between atoms: _171  and  _173
REMARK   73  A    between atoms: _173  and  _174
REMARK   74  A    between atoms: _173  and  _176
REMARK   75  A    between atoms: _179  and  _181
REMARK   76  A    between atoms: _181  and  _182
REMARK   77  A    between atoms: _181  and  _184
REMARK   78  A    between atoms: _184  and  _185
REMARK   79  A    between atoms: _188  and  _190
REMARK   80  A    between atoms: _190  and  _191
REMARK   81  A    between atoms: _190  and  _193
REMARK   82  A    between atoms: _193  and  _194
REMARK   83  A    between atoms: _199  and  _200
REMARK   84  A    between atoms: _202  and  _204
REMARK   85  A    between atoms: _204  and  _205
REMARK   86  A    between atoms: _204  and  _207
REMARK   87  A    between atoms: _209  and  _211
REMARK   88  A    between atoms: _211  and  _212
REMARK   89  A    between atoms: _211  and  _214
REMARK   90  A    between atoms: _217  and  _219
REMARK   91  A    between atoms: _219  and  _220
REMARK   92  A    between atoms: _223  and  _225
REMARK   93  A    between atoms: _225  and  _226
REMARK   94  A    between atoms: _228  and  _230
REMARK   95  A    between atoms: _230  and  _231
REMARK   96  A    between atoms: _230  and  _233
REMARK   97  A    between atoms: _233  and  _234
REMARK   98  A    between atoms: _237  and  _239
REMARK   99  A    between atoms: _239  and  _240
REMARK  100  A    between atoms: _239  and  _242
REMARK  101  A    between atoms: _245  and  _247
REMARK  102  A    between atoms: _247  and  _248
REMARK  103  A    between atoms: _250  and  _252
REMARK  104  A    between atoms: _252  and  _253
REMARK  105  A    between atoms: _252  and  _255
REMARK  106  A    between atoms: _255  and  _256
REMARK  107  A    between atoms: _256  and  _257
REMARK  108  A    between atoms: _260  and  _262
REMARK  109  A    between atoms: _262  and  _263
REMARK  110  A    between atoms: _262  and  _265
REMARK  111  A    between atoms: _268  and  _270
REMARK  112  A    between atoms: _270  and  _271
REMARK  113  A    between atoms: _270  and  _273
REMARK  114  A    between atoms: _273  and  _274
REMARK  115  A    between atoms: _277  and  _279
REMARK  116  A    between atoms: _279  and  _280
REMARK  117  A    between atoms: _279  and  _282
REMARK  118  A    between atoms: _282  and  _283
REMARK  119  A    between atoms: _286  and  _288
REMARK  120  A    between atoms: _288  and  _289
REMARK  121  A    between atoms: _288  and  _291
REMARK  122  A    between atoms: _291  and  _292
REMARK  123  A    between atoms: _295  and  _297
REMARK  124  A    between atoms: _297  and  _298
REMARK  125  A    between atoms: _297  and  _300
REMARK  126  A    between atoms: _300  and  _301
REMARK  127  A    between atoms: _304  and  _306
REMARK  128  A    between atoms: _306  and  _307
REMARK  129  A    between atoms: _306  and  _309
REMARK  130  A    between atoms: _309  and  _310
REMARK  131  A    between atoms: _312  and  _314
REMARK  132  A    between atoms: _314  and  _315
REMARK  133  A    between atoms: _314  and  _317
REMARK  134  A    between atoms: _317  and  _318
REMARK  135  A    between atoms: _321  and  _323
REMARK  136  A    between atoms: _323  and  _324
REMARK  137  A    between atoms: _323  and  _326
REMARK  138  A    between atoms: _326  and  _327
REMARK  139  A    between atoms: _332  and  _333
REMARK  140  A    between atoms: _335  and  _337
REMARK  141  A    between atoms: _337  and  _338
REMARK  142  A    between atoms: _337  and  _340
REMARK  143  A    between atoms: _343  and  _345
REMARK  144  A    between atoms: _345  and  _346
REMARK  145  A    between atoms: _349  and  _351
REMARK  146  A    between atoms: _351  and  _352
REMARK  147  A    between atoms: _351  and  _354
REMARK  148  A    between atoms: _354  and  _355
REMARK  149  A    between atoms: _355  and  _356
REMARK  150  A    between atoms: _356  and  _357
REMARK  151  A    between atoms: _366  and  _368
REMARK  152  A    between atoms: _368  and  _369
REMARK  153  A    between atoms: _368  and  _371
REMARK  154  A    between atoms: _371  and  _372
REMARK  155  A    between atoms: _372  and  _373
REMARK  156  A    between atoms: _373  and  _374
REMARK  157  A    between atoms: _383  and  _385
REMARK  158  A    between atoms: _385  and  _386
REMARK  159  A    between atoms: _385  and  _388
REMARK  160  A    between atoms: _388  and  _389
REMARK  161  A    between atoms: _392  and  _394
REMARK  162  A    between atoms: _394  and  _395
REMARK  163  A    between atoms: _397  and  _399
REMARK  164  A    between atoms: _399  and  _400
REMARK  165  A    between atoms: _399  and  _402
REMARK  166  A    between atoms: _402  and  _403
REMARK  167  A    between atoms: _403  and  _404
REMARK  168  A    between atoms: _407  and  _409
REMARK  169  A    between atoms: _409  and  _410
REMARK  170  A    between atoms: _409  and  _412
REMARK  171  A    between atoms: _412  and  _413
REMARK  172  A    between atoms: _415  and  _417
REMARK  173  A    between atoms: _417  and  _418
REMARK  174  A    between atoms: _417  and  _420
REMARK  175  A    between atoms: _420  and  _421
REMARK  176  A    between atoms: _424  and  _426
REMARK  177  A    between atoms: _426  and  _427
REMARK  178  A    between atoms: _426  and  _429
REMARK  179  A    between atoms: _429  and  _430
REMARK  180  A    between atoms: _430  and  _431
REMARK  181  A    between atoms: _436  and  _438
REMARK  182  A    between atoms: _438  and  _439
REMARK  183  A    between atoms: _438  and  _441
REMARK  184  A    between atoms: _441  and  _442
REMARK  185  A    between atoms: _445  and  _447
REMARK  186  A    between atoms: _447  and  _448
REMARK  187  A    between atoms: _447  and  _450
REMARK  188  A    between atoms: _450  and  _451
REMARK  189  A    between atoms: _454  and  _456
REMARK  190  A    between atoms: _456  and  _457
REMARK  191  A    between atoms: _456  and  _459
REMARK  192  A    between atoms: _459  and  _460
REMARK  193  A    between atoms: _460  and  _461
REMARK  194  A    between atoms: _460  and  _462
REMARK  195  A    between atoms: _461  and  MG_705
REMARK  196  A    between atoms: _465  and  _467
REMARK  197  A    between atoms: _467  and  _468
REMARK  198  A    between atoms: _467  and  _470
REMARK  199  A    between atoms: _470  and  _471
REMARK  200  A    between atoms: _474  and  _476
REMARK  201  A    between atoms: _476  and  _477
REMARK  202  A    between atoms: _476  and  _479
REMARK  203  A    between atoms: _479  and  _480
REMARK  204  A    between atoms: _480  and  _481
REMARK  205  A    between atoms: _481  and  _482
REMARK  206  A    between atoms: _491  and  _493
REMARK  207  A    between atoms: _493  and  _494
REMARK  208  A    between atoms: _493  and  _496
REMARK  209  A    between atoms: _496  and  _497
REMARK  210  A    between atoms: _497  and  _499
REMARK  211  A    between atoms: _499  and  MG_705
REMARK  212  A    between atoms: _500  and  _502
REMARK  213  A    between atoms: _502  and  _503
REMARK  214  A    between atoms: _502  and  _505
REMARK  215  A    between atoms: _505  and  _506
REMARK  216  A    between atoms: _506  and  _507
REMARK  217  A    between atoms: _510  and  _512
REMARK  218  A    between atoms: _512  and  _513
REMARK  219  A    between atoms: _512  and  _515
REMARK  220  A    between atoms: _515  and  _516
REMARK  221  A    between atoms: _519  and  _521
REMARK  222  A    between atoms: _521  and  _522
REMARK  223  A    between atoms: _521  and  _524
REMARK  224  A    between atoms: _524  and  _525
REMARK  225  A    between atoms: _530  and  _532
REMARK  226  A    between atoms: _532  and  _533
REMARK  227  A    between atoms: _532  and  _535
REMARK  228  A    between atoms: _535  and  _536
REMARK  229  A    between atoms: _536  and  _537
REMARK  230  A    between atoms: _537  and  _538
REMARK  231  A    between atoms: _547  and  _549
REMARK  232  A    between atoms: _549  and  _550
REMARK  233  A    between atoms: _549  and  _552
REMARK  234  A    between atoms: _552  and  _553
REMARK  235  A    between atoms: _558  and  _559
REMARK  236  A    between atoms: _561  and  _563
REMARK  237  A    between atoms: _563  and  _564
REMARK  238  A    between atoms: _563  and  _566
REMARK  239  A    between atoms: _569  and  _571
REMARK  240  A    between atoms: _571  and  _572
REMARK  241  A    between atoms: _571  and  _574
REMARK  242  A    between atoms: _574  and  _575
REMARK  243  A    between atoms: _575  and  _576
REMARK  244  A    between atoms: _578  and  _580
REMARK  245  A    between atoms: _580  and  _581
REMARK  246  A    between atoms: _580  and  _583
REMARK  247  A    between atoms: _583  and  _584
REMARK  248  A    between atoms: _587  and  _589
REMARK  249  A    between atoms: _589  and  _590
REMARK  250  A    between atoms: _589  and  _592
REMARK  251  A    between atoms: _595  and  _597
REMARK  252  A    between atoms: _597  and  _598
REMARK  253  A    between atoms: _597  and  _600
REMARK  254  A    between atoms: _600  and  _601
REMARK  255  A    between atoms: _607  and  _609
REMARK  256  A    between atoms: _609  and  _610
REMARK  257  A    between atoms: _613  and  _615
REMARK  258  A    between atoms: _615  and  _616
REMARK  259  A    between atoms: _615  and  _618
REMARK  260  A    between atoms: _618  and  _619
REMARK  261  A    between atoms: _619  and  _620
REMARK  262  A    between atoms: _625  and  _627
REMARK  263  A    between atoms: _627  and  _628
REMARK  264  A    between atoms: _627  and  _630
REMARK  265  A    between atoms: _630  and  _631
REMARK  266  A    between atoms: _634  and  _636
REMARK  267  A    between atoms: _636  and  _637
REMARK  268  A    between atoms: _636  and  _639
REMARK  269  A    between atoms: _639  and  _640
REMARK  270  A    between atoms: _643  and  _645
REMARK  271  A    between atoms: _645  and  _646
REMARK  272  A    between atoms: _645  and  _648
REMARK  273  A    between atoms: _648  and  _649
REMARK  274  A    between atoms: _649  and  _650
REMARK  275  A    between atoms: _653  and  _655
REMARK  276  A    between atoms: _655  and  _656
REMARK  277  A    between atoms: _659  and  _661
REMARK  278  A    between atoms: _661  and  _662
REMARK  279  A    between atoms: _665  and  _667
REMARK  280  A    between atoms: _667  and  _668
REMARK  281  A    between atoms: _667  and  _670
REMARK  282  A    between atoms: _670  and  _671
REMARK  283  A    between atoms: _676  and  _677
REMARK  284  A    between atoms: _679  and  _681
REMARK  285  A    between atoms: _681  and  _682
REMARK  286  A    between atoms: _681  and  _684
REMARK  287  A    between atoms: _684  and  _685
REMARK  288  A    between atoms: _688  and  _690
REMARK  289  A    between atoms: _690  and  _691
REMARK  290  A    between atoms: _690  and  _693
REMARK  291  A    between atoms: _693  and  _694
REMARK  292  A    between atoms: _694  and  _695
REMARK  293  A    between atoms: _695  and  _696
REMARK                            x       y       z     vdW  Elec       q    Type
REMARK                         _______ _______ _______ _____ _____    ______ ____
ROOT
ATOM      1  CG  TYR A   1      21.413  60.936  37.625  0.00  0.00    -0.020 A 
ATOM      2  CD2 TYR A   1      21.762  60.245  38.788  0.00  0.00    -0.001 A 
ATOM      3  CE2 TYR A   1      22.172  58.908  38.747  0.00  0.00    +0.036 A 
ATOM      4  CZ  TYR A   1      22.218  58.246  37.529  0.00  0.00    +0.134 A 
ATOM      5  CE1 TYR A   1      21.873  58.917  36.357  0.00  0.00    +0.036 A 
ATOM      6  CD1 TYR A   1      21.478  60.259  36.413  0.00  0.00    -0.001 A 
ENDROOT
BRANCH   4   7
ATOM      7  OH  TYR A   1      22.568  56.907  37.441  0.00  0.00    -0.506 OA
ATOM      8  HH  TYR A   1      22.787  56.564  38.344  0.00  0.00    +0.292 HD
ENDBRANCH   4   7
BRANCH   1   9
ATOM      9  CB  TYR A   1      20.966  62.380  37.680  0.00  0.00    +0.051 C 
BRANCH   9  10
ATOM     10  CA  TYR A   1      22.097  63.347  38.065  0.00  0.00    +0.137 C 
BRANCH  10  11
ATOM     11  N   TYR A   1      21.632  64.329  39.015  0.00  0.00    -0.239 NA
ATOM     12  H   TYR A   1      20.614  64.487  39.160  0.00  0.00    +0.142 HD
ENDBRANCH  10  11
BRANCH  10  13
ATOM     13  C   TYR A   1      22.703  63.949  36.827  0.00  0.00    +0.224 C 
ATOM     14  O   TYR A   1      23.669  63.417  36.297  0.00  0.00    -0.287 OA
ENDBRANCH  10  13
ENDBRANCH   9  10
ENDBRANCH   1   9
TORSDOF 5
REMARK  Name = ../refined-set-2016/2zcr/2zcr_pocket.pdb
REMARK  293 active torsions:
REMARK  status: ('A' for Active; 'I' for Inactive)
REMARK    1  A    between atoms: _1  and  _3
REMARK    2  A    between atoms: _3  and  _4
REMARK    3  A    between atoms: _3  and  _6
REMARK    4  A    between atoms: _6  and  _7
REMARK    5  A    between atoms: _7  and  _8
REMARK    6  A    between atoms: _10  and  _12
REMARK    7  A    between atoms: _12  and  _13
REMARK    8  A    between atoms: _12  and  _15
REMARK    9  A    between atoms: _15  and  _16
REMARK   10  A    between atoms: _21  and  _23
REMARK   11  A    between atoms: _23  and  _24
REMARK   12  A    between atoms: _23  and  _26
REMARK   13  A    between atoms: _26  and  _27
REMARK   14  A    between atoms: _29  and  _31
REMARK   15  A    between atoms: _31  and  _32
REMARK   16  A    between atoms: _31  and  _34
REMARK   17  A    between atoms: _34  and  _35
REMARK   18  A    between atoms: _35  and  _36
REMARK   19  A    between atoms: _36  and  _37
REMARK   20  A    between atoms: _37  and  _38
REMARK   21  A    between atoms: _42  and  _44
REMARK   22  A    between atoms: _44  and  _45
REMARK   23  A    between atoms: _44  and  _47
REMARK   24  A    between atoms: _47  and  _48
REMARK   25  A    between atoms: _50  and  _52
REMARK   26  A    between atoms: _52  and  _53
REMARK   27  A    between atoms: _52  and  _55
REMARK   28  A    between atoms: _55  and  _56
REMARK   29  A    between atoms: _62  and  _64
REMARK   30  A    between atoms: _64  and  _65
REMARK   31  A    between atoms: _68  and  _70
REMARK   32  A    between atoms: _70  and  _71
REMARK   33  A    between atoms: _70  and  _73
REMARK   34  A    between atoms: _73  and  _74
REMARK   35  A    between atoms: _80  and  _82
REMARK   36  A    between atoms: _82  and  _83
REMARK   37  A    between atoms: _82  and  _85
REMARK   38  A    between atoms: _85  and  _86
REMARK   39  A    between atoms: _89  and  _91
REMARK   40  A    between atoms: _91  and  _92
REMARK   41  A    between atoms: _91  and  _94
REMARK   42  A    between atoms: _97  and  _99
REMARK   43  A    between atoms: _99  and  _100
REMARK   44  A    between atoms: _99  and  _102
REMARK   45  A    between atoms: _102  and  _103
REMARK   46  A    between atoms: _106  and  _108
REMARK   47  A    between atoms: _108  and  _109
REMARK   48  A    between atoms: _108  and  _111
REMARK   49  A    between atoms: _111  and  _112
REMARK   50  A    between atoms: _117  and  _118
REMARK   51  A    between atoms: _120  and  _122
REMARK   52  A    between atoms: _122  and  _123
REMARK   53  A    between atoms: _122  and  _125
REMARK   54  A    between atoms: _127  and  _129
REMARK   55  A    between atoms: _129  and  _130
REMARK   56  A    between atoms: _129  and  _132
REMARK   57  A    between atoms: _132  and  _133
REMARK   58  A    between atoms: _133  and  _134
REMARK   59  A    between atoms: _134  and  _135
REMARK   60  A    between atoms: _144  and  _146
REMARK   61  A    between atoms: _146  and  _147
REMARK   62  A    between atoms: _146  and  _149
REMARK   63  A    between atoms: _149  and  _150
REMARK   64  A    between atoms: _153  and  _155
REMARK   65  A    between atoms: _155  and  _156
REMARK   66  A    between atoms: _155  and  _158
REMARK   67  A    between atoms: _158  and  _159
REMARK   68  A    between atoms: _162  and  _164
REMARK   69  A    between atoms: _164  and  _165
REMARK   70  A    between atoms: _164  and  _167
REMARK   71  A    between atoms: _167  and  _168
REMARK   72  A    between atoms: _171  and  _173
REMARK   73  A    between atoms: _173  and  _174
REMARK   74  A    between atoms: _173  and  _176
REMARK   75  A    between atoms: _179  and  _181
REMARK   76  A    between atoms: _181  and  _182
REMARK   77  A    between atoms: _181  and  _184
REMARK   78  A    between atoms: _184  and  _185
REMARK   79  A    between atoms: _188  and  _190
REMARK   80  A    between atoms: _190  and  _191
REMARK   81  A    between atoms: _190  and  _193
REMARK   82  A    between atoms: _193  and  _194
REMARK   83  A    between atoms: _199  and  _200
REMARK   84  A    between atoms: _202  and  _204
REMARK   85  A    between atoms: _204  and  _205
REMARK   86  A    between atoms: _204  and  _207
REMARK   87  A    between atoms: _209  and  _211
REMARK   88  A    between atoms: _211  and  _212
REMARK   89  A    between atoms: _211  and  _214
REMARK   90  A    between atoms: _217  and  _219
REMARK   91  A    between atoms: _219  and  _220
REMARK   92  A    between atoms: _223  and  _225
REMARK   93  A    between atoms: _225  and  _226
REMARK   94  A    between atoms: _228  and  _230
REMARK   95  A    between atoms: _230  and  _231
REMARK   96  A    between atoms: _230  and  _233
REMARK   97  A    between atoms: _233  and  _234
REMARK   98  A    between atoms: _237  and  _239
REMARK   99  A    between atoms: _239  and  _240
REMARK  100  A    between atoms: _239  and  _242
REMARK  101  A    between atoms: _245  and  _247
REMARK  102  A    between atoms: _247  and  _248
REMARK  103  A    between atoms: _250  and  _252
REMARK  104  A    between atoms: _252  and  _253
REMARK  105  A    between atoms: _252  and  _255
REMARK  106  A    between atoms: _255  and  _256
REMARK  107  A    between atoms: _256  and  _257
REMARK  108  A    between atoms: _260  and  _262
REMARK  109  A    between atoms: _262  and  _263
REMARK  110  A    between atoms: _262  and  _265
REMARK  111  A    between atoms: _268  and  _270
REMARK  112  A    between atoms: _270  and  _271
REMARK  113  A    between atoms: _270  and  _273
REMARK  114  A    between atoms: _273  and  _274
REMARK  115  A    between atoms: _277  and  _279
REMARK  116  A    between atoms: _279  and  _280
REMARK  117  A    between atoms: _279  and  _282
REMARK  118  A    between atoms: _282  and  _283
REMARK  119  A    between atoms: _286  and  _288
REMARK  120  A    between atoms: _288  and  _289
REMARK  121  A    between atoms: _288  and  _291
REMARK  122  A    between atoms: _291  and  _292
REMARK  123  A    between atoms: _295  and  _297
REMARK  124  A    between atoms: _297  and  _298
REMARK  125  A    between atoms: _297  and  _300
REMARK  126  A    between atoms: _300  and  _301
REMARK  127  A    between atoms: _304  and  _306
REMARK  128  A    between atoms: _306  and  _307
REMARK  129  A    between atoms: _306  and  _309
REMARK  130  A    between atoms: _309  and  _310
REMARK  131  A    between atoms: _312  and  _314
REMARK  132  A    between atoms: _314  and  _315
REMARK  133  A    between atoms: _314  and  _317
REMARK  134  A    between atoms: _317  and  _318
REMARK  135  A    between atoms: _321  and  _323
REMARK  136  A    between atoms: _323  and  _324
REMARK  137  A    between atoms: _323  and  _326
REMARK  138  A    between atoms: _326  and  _327
REMARK  139  A    between atoms: _332  and  _333
REMARK  140  A    between atoms: _335  and  _337
REMARK  141  A    between atoms: _337  and  _338
REMARK  142  A    between atoms: _337  and  _340
REMARK  143  A    between atoms: _343  and  _345
REMARK  144  A    between atoms: _345  and  _346
REMARK  145  A    between atoms: _349  and  _351
REMARK  146  A    between atoms: _351  and  _352
REMARK  147  A    between atoms: _351  and  _354
REMARK  148  A    between atoms: _354  and  _355
REMARK  149  A    between atoms: _355  and  _356
REMARK  150  A    between atoms: _356  and  _357
REMARK  151  A    between atoms: _366  and  _368
REMARK  152  A    between atoms: _368  and  _369
REMARK  153  A    between atoms: _368  and  _371
REMARK  154  A    between atoms: _371  and  _372
REMARK  155  A    between atoms: _372  and  _373
REMARK  156  A    between atoms: _373  and  _374
REMARK  157  A    between atoms: _383  and  _385
REMARK  158  A    between atoms: _385  and  _386
REMARK  159  A    between atoms: _385  and  _388
REMARK  160  A    between atoms: _388  and  _389
REMARK  161  A    between atoms: _392  and  _394
REMARK  162  A    between atoms: _394  and  _395
REMARK  163  A    between atoms: _397  and  _399
REMARK  164  A    between atoms: _399  and  _400
REMARK  165  A    between atoms: _399  and  _402
REMARK  166  A    between atoms: _402  and  _403
REMARK  167  A    between atoms: _403  and  _404
REMARK  168  A    between atoms: _407  and  _409
REMARK  169  A    between atoms: _409  and  _410
REMARK  170  A    between atoms: _409  and  _412
REMARK  171  A    between atoms: _412  and  _413
REMARK  172  A    between atoms: _415  and  _417
REMARK  173  A    between atoms: _417  and  _418
REMARK  174  A    between atoms: _417  and  _420
REMARK  175  A    between atoms: _420  and  _421
REMARK  176  A    between atoms: _424  and  _426
REMARK  177  A    between atoms: _426  and  _427
REMARK  178  A    between atoms: _426  and  _429
REMARK  179  A    between atoms: _429  and  _430
REMARK  180  A    between atoms: _430  and  _431
REMARK  181  A    between atoms: _436  and  _438
REMARK  182  A    between atoms: _438  and  _439
REMARK  183  A    between atoms: _438  and  _441
REMARK  184  A    between atoms: _441  and  _442
REMARK  185  A    between atoms: _445  and  _447
REMARK  186  A    between atoms: _447  and  _448
REMARK  187  A    between atoms: _447  and  _450
REMARK  188  A    between atoms: _450  and  _451
REMARK  189  A    between atoms: _454  and  _456
REMARK  190  A    between atoms: _456  and  _457
REMARK  191  A    between atoms: _456  and  _459
REMARK  192  A    between atoms: _459  and  _460
REMARK  193  A    between atoms: _460  and  _461
REMARK  194  A    between atoms: _460  and  _462
REMARK  195  A    between atoms: _461  and  MG_705
REMARK  196  A    between atoms: _465  and  _467
REMARK  197  A    between atoms: _467  and  _468
REMARK  198  A    between atoms: _467  and  _470
REMARK  199  A    between atoms: _470  and  _471
REMARK  200  A    between atoms: _474  and  _476
REMARK  201  A    between atoms: _476  and  _477
REMARK  202  A    between atoms: _476  and  _479
REMARK  203  A    between atoms: _479  and  _480
REMARK  204  A    between atoms: _480  and  _481
REMARK  205  A    between atoms: _481  and  _482
REMARK  206  A    between atoms: _491  and  _493
REMARK  207  A    between atoms: _493  and  _494
REMARK  208  A    between atoms: _493  and  _496
REMARK  209  A    between atoms: _496  and  _497
REMARK  210  A    between atoms: _497  and  _499
REMARK  211  A    between atoms: _499  and  MG_705
REMARK  212  A    between atoms: _500  and  _502
REMARK  213  A    between atoms: _502  and  _503
REMARK  214  A    between atoms: _502  and  _505
REMARK  215  A    between atoms: _505  and  _506
REMARK  216  A    between atoms: _506  and  _507
REMARK  217  A    between atoms: _510  and  _512
REMARK  218  A    between atoms: _512  and  _513
REMARK  219  A    between atoms: _512  and  _515
REMARK  220  A    between atoms: _515  and  _516
REMARK  221  A    between atoms: _519  and  _521
REMARK  222  A    between atoms: _521  and  _522
REMARK  223  A    between atoms: _521  and  _524
REMARK  224  A    between atoms: _524  and  _525
REMARK  225  A    between atoms: _530  and  _532
REMARK  226  A    between atoms: _532  and  _533
REMARK  227  A    between atoms: _532  and  _535
REMARK  228  A    between atoms: _535  and  _536
REMARK  229  A    between atoms: _536  and  _537
REMARK  230  A    between atoms: _537  and  _538
REMARK  231  A    between atoms: _547  and  _549
REMARK  232  A    between atoms: _549  and  _550
REMARK  233  A    between atoms: _549  and  _552
REMARK  234  A    between atoms: _552  and  _553
REMARK  235  A    between atoms: _558  and  _559
REMARK  236  A    between atoms: _561  and  _563
REMARK  237  A    between atoms: _563  and  _564
REMARK  238  A    between atoms: _563  and  _566
REMARK  239  A    between atoms: _569  and  _571
REMARK  240  A    between atoms: _571  and  _572
REMARK  241  A    between atoms: _571  and  _574
REMARK  242  A    between atoms: _574  and  _575
REMARK  243  A    between atoms: _575  and  _576
REMARK  244  A    between atoms: _578  and  _580
REMARK  245  A    between atoms: _580  and  _581
REMARK  246  A    between atoms: _580  and  _583
REMARK  247  A    between atoms: _583  and  _584
REMARK  248  A    between atoms: _587  and  _589
REMARK  249  A    between atoms: _589  and  _590
REMARK  250  A    between atoms: _589  and  _592
REMARK  251  A    between atoms: _595  and  _597
REMARK  252  A    between atoms: _597  and  _598
REMARK  253  A    between atoms: _597  and  _600
REMARK  254  A    between atoms: _600  and  _601
REMARK  255  A    between atoms: _607  and  _609
REMARK  256  A    between atoms: _609  and  _610
REMARK  257  A    between atoms: _613  and  _615
REMARK  258  A    between atoms: _615  and  _616
REMARK  259  A    between atoms: _615  and  _618
REMARK  260  A    between atoms: _618  and  _619
REMARK  261  A    between atoms: _619  and  _620
REMARK  262  A    between atoms: _625  and  _627
REMARK  263  A    between atoms: _627  and  _628
REMARK  264  A    between atoms: _627  and  _630
REMARK  265  A    between atoms: _630  and  _631
REMARK  266  A    between atoms: _634  and  _636
REMARK  267  A    between atoms: _636  and  _637
REMARK  268  A    between atoms: _636  and  _639
REMARK  269  A    between atoms: _639  and  _640
REMARK  270  A    between atoms: _643  and  _645
REMARK  271  A    between atoms: _645  and  _646
REMARK  272  A    between atoms: _645  and  _648
REMARK  273  A    between atoms: _648  and  _649
REMARK  274  A    between atoms: _649  and  _650
REMARK  275  A    between atoms: _653  and  _655
REMARK  276  A    between atoms: _655  and  _656
REMARK  277  A    between atoms: _659  and  _661
REMARK  278  A    between atoms: _661  and  _662
REMARK  279  A    between atoms: _665  and  _667
REMARK  280  A    between atoms: _667  and  _668
REMARK  281  A    between atoms: _667  and  _670
REMARK  282  A    between atoms: _670  and  _671
REMARK  283  A    between atoms: _676  and  _677
REMARK  284  A    between atoms: _679  and  _681
REMARK  285  A    between atoms: _681  and  _682
REMARK  286  A    between atoms: _681  and  _684
REMARK  287  A    between atoms: _684  and  _685
REMARK  288  A    between atoms: _688  and  _690
REMARK  289  A    between atoms: _690  and  _691
REMARK  290  A    between atoms: _690  and  _693
REMARK  291  A    between atoms: _693  and  _694
REMARK  292  A    between atoms: _694  and  _695
REMARK  293  A    between atoms: _695  and  _696
REMARK                            x       y       z     vdW  Elec       q    Type
REMARK                         _______ _______ _______ _____ _____    ______ ____
ROOT
ATOM      1  CA  ILE A   1      27.213  63.970  36.203  0.00  0.00    +0.133 C 
ENDROOT
BRANCH   1   2
ATOM      2  N   ILE A   1      26.264  65.026  36.548  0.00  0.00    -0.239 NA
ATOM      3  H   ILE A   1      25.268  64.787  36.726  0.00  0.00    +0.142 HD
ENDBRANCH   1   2
BRANCH   1   4
ATOM      4  CB  ILE A   1      26.523  62.583  36.149  0.00  0.00    +0.023 C 
ATOM      5  CG2 ILE A   1      27.411  61.588  35.417  0.00  0.00    +0.002 C 
BRANCH   4   6
ATOM      6  CG1 ILE A   1      26.269  62.088  37.599  0.00  0.00    +0.002 C 
ATOM      7  CD1 ILE A   1      25.462  60.784  37.666  0.00  0.00    +0.000 C 
ENDBRANCH   4   6
ENDBRANCH   1   4
BRANCH   1   8
ATOM      8  C   ILE A   1      27.850  64.259  34.851  0.00  0.00    +0.224 C 
ATOM      9  O   ILE A   1      29.020  63.925  34.621  0.00  0.00    -0.287 OA
ENDBRANCH   1   8
TORSDOF 4
REMARK  Name = ../refined-set-2016/2zcr/2zcr_pocket.pdb
REMARK  293 active torsions:
REMARK  status: ('A' for Active; 'I' for Inactive)
REMARK    1  A    between atoms: _1  and  _3
REMARK    2  A    between atoms: _3  and  _4
REMARK    3  A    between atoms: _3  and  _6
REMARK    4  A    between atoms: _6  and  _7
REMARK    5  A    between atoms: _7  and  _8
REMARK    6  A    between atoms: _10  and  _12
REMARK    7  A    between atoms: _12  and  _13
REMARK    8  A    between atoms: _12  and  _15
REMARK    9  A    between atoms: _15  and  _16
REMARK   10  A    between atoms: _21  and  _23
REMARK   11  A    between atoms: _23  and  _24
REMARK   12  A    between atoms: _23  and  _26
REMARK   13  A    between atoms: _26  and  _27
REMARK   14  A    between atoms: _29  and  _31
REMARK   15  A    between atoms: _31  and  _32
REMARK   16  A    between atoms: _31  and  _34
REMARK   17  A    between atoms: _34  and  _35
REMARK   18  A    between atoms: _35  and  _36
REMARK   19  A    between atoms: _36  and  _37
REMARK   20  A    between atoms: _37  and  _38
REMARK   21  A    between atoms: _42  and  _44
REMARK   22  A    between atoms: _44  and  _45
REMARK   23  A    between atoms: _44  and  _47
REMARK   24  A    between atoms: _47  and  _48
REMARK   25  A    between atoms: _50  and  _52
REMARK   26  A    between atoms: _52  and  _53
REMARK   27  A    between atoms: _52  and  _55
REMARK   28  A    between atoms: _55  and  _56
REMARK   29  A    between atoms: _62  and  _64
REMARK   30  A    between atoms: _64  and  _65
REMARK   31  A    between atoms: _68  and  _70
REMARK   32  A    between atoms: _70  and  _71
REMARK   33  A    between atoms: _70  and  _73
REMARK   34  A    between atoms: _73  and  _74
REMARK   35  A    between atoms: _80  and  _82
REMARK   36  A    between atoms: _82  and  _83
REMARK   37  A    between atoms: _82  and  _85
REMARK   38  A    between atoms: _85  and  _86
REMARK   39  A    between atoms: _89  and  _91
REMARK   40  A    between atoms: _91  and  _92
REMARK   41  A    between atoms: _91  and  _94
REMARK   42  A    between atoms: _97  and  _99
REMARK   43  A    between atoms: _99  and  _100
REMARK   44  A    between atoms: _99  and  _102
REMARK   45  A    between atoms: _102  and  _103
REMARK   46  A    between atoms: _106  and  _108
REMARK   47  A    between atoms: _108  and  _109
REMARK   48  A    between atoms: _108  and  _111
REMARK   49  A    between atoms: _111  and  _112
REMARK   50  A    between atoms: _117  and  _118
REMARK   51  A    between atoms: _120  and  _122
REMARK   52  A    between atoms: _122  and  _123
REMARK   53  A    between atoms: _122  and  _125
REMARK   54  A    between atoms: _127  and  _129
REMARK   55  A    between atoms: _129  and  _130
REMARK   56  A    between atoms: _129  and  _132
REMARK   57  A    between atoms: _132  and  _133
REMARK   58  A    between atoms: _133  and  _134
REMARK   59  A    between atoms: _134  and  _135
REMARK   60  A    between atoms: _144  and  _146
REMARK   61  A    between atoms: _146  and  _147
REMARK   62  A    between atoms: _146  and  _149
REMARK   63  A    between atoms: _149  and  _150
REMARK   64  A    between atoms: _153  and  _155
REMARK   65  A    between atoms: _155  and  _156
REMARK   66  A    between atoms: _155  and  _158
REMARK   67  A    between atoms: _158  and  _159
REMARK   68  A    between atoms: _162  and  _164
REMARK   69  A    between atoms: _164  and  _165
REMARK   70  A    between atoms: _164  and  _167
REMARK   71  A    between atoms: _167  and  _168
REMARK   72  A    between atoms: _171  and  _173
REMARK   73  A    between atoms: _173  and  _174
REMARK   74  A    between atoms: _173  and  _176
REMARK   75  A    between atoms: _179  and  _181
REMARK   76  A    between atoms: _181  and  _182
REMARK   77  A    between atoms: _181  and  _184
REMARK   78  A    between atoms: _184  and  _185
REMARK   79  A    between atoms: _188  and  _190
REMARK   80  A    between atoms: _190  and  _191
REMARK   81  A    between atoms: _190  and  _193
REMARK   82  A    between atoms: _193  and  _194
REMARK   83  A    between atoms: _199  and  _200
REMARK   84  A    between atoms: _202  and  _204
REMARK   85  A    between atoms: _204  and  _205
REMARK   86  A    between atoms: _204  and  _207
REMARK   87  A    between atoms: _209  and  _211
REMARK   88  A    between atoms: _211  and  _212
REMARK   89  A    between atoms: _211  and  _214
REMARK   90  A    between atoms: _217  and  _219
REMARK   91  A    between atoms: _219  and  _220
REMARK   92  A    between atoms: _223  and  _225
REMARK   93  A    between atoms: _225  and  _226
REMARK   94  A    between atoms: _228  and  _230
REMARK   95  A    between atoms: _230  and  _231
REMARK   96  A    between atoms: _230  and  _233
REMARK   97  A    between atoms: _233  and  _234
REMARK   98  A    between atoms: _237  and  _239
REMARK   99  A    between atoms: _239  and  _240
REMARK  100  A    between atoms: _239  and  _242
REMARK  101  A    between atoms: _245  and  _247
REMARK  102  A    between atoms: _247  and  _248
REMARK  103  A    between atoms: _250  and  _252
REMARK  104  A    between atoms: _252  and  _253
REMARK  105  A    between atoms: _252  and  _255
REMARK  106  A    between atoms: _255  and  _256
REMARK  107  A    between atoms: _256  and  _257
REMARK  108  A    between atoms: _260  and  _262
REMARK  109  A    between atoms: _262  and  _263
REMARK  110  A    between atoms: _262  and  _265
REMARK  111  A    between atoms: _268  and  _270
REMARK  112  A    between atoms: _270  and  _271
REMARK  113  A    between atoms: _270  and  _273
REMARK  114  A    between atoms: _273  and  _274
REMARK  115  A    between atoms: _277  and  _279
REMARK  116  A    between atoms: _279  and  _280
REMARK  117  A    between atoms: _279  and  _282
REMARK  118  A    between atoms: _282  and  _283
REMARK  119  A    between atoms: _286  and  _288
REMARK  120  A    between atoms: _288  and  _289
REMARK  121  A    between atoms: _288  and  _291
REMARK  122  A    between atoms: _291  and  _292
REMARK  123  A    between atoms: _295  and  _297
REMARK  124  A    between atoms: _297  and  _298
REMARK  125  A    between atoms: _297  and  _300
REMARK  126  A    between atoms: _300  and  _301
REMARK  127  A    between atoms: _304  and  _306
REMARK  128  A    between atoms: _306  and  _307
REMARK  129  A    between atoms: _306  and  _309
REMARK  130  A    between atoms: _309  and  _310
REMARK  131  A    between atoms: _312  and  _314
REMARK  132  A    between atoms: _314  and  _315
REMARK  133  A    between atoms: _314  and  _317
REMARK  134  A    between atoms: _317  and  _318
REMARK  135  A    between atoms: _321  and  _323
REMARK  136  A    between atoms: _323  and  _324
REMARK  137  A    between atoms: _323  and  _326
REMARK  138  A    between atoms: _326  and  _327
REMARK  139  A    between atoms: _332  and  _333
REMARK  140  A    between atoms: _335  and  _337
REMARK  141  A    between atoms: _337  and  _338
REMARK  142  A    between atoms: _337  and  _340
REMARK  143  A    between atoms: _343  and  _345
REMARK  144  A    between atoms: _345  and  _346
REMARK  145  A    between atoms: _349  and  _351
REMARK  146  A    between atoms: _351  and  _352
REMARK  147  A    between atoms: _351  and  _354
REMARK  148  A    between atoms: _354  and  _355
REMARK  149  A    between atoms: _355  and  _356
REMARK  150  A    between atoms: _356  and  _357
REMARK  151  A    between atoms: _366  and  _368
REMARK  152  A    between atoms: _368  and  _369
REMARK  153  A    between atoms: _368  and  _371
REMARK  154  A    between atoms: _371  and  _372
REMARK  155  A    between atoms: _372  and  _373
REMARK  156  A    between atoms: _373  and  _374
REMARK  157  A    between atoms: _383  and  _385
REMARK  158  A    between atoms: _385  and  _386
REMARK  159  A    between atoms: _385  and  _388
REMARK  160  A    between atoms: _388  and  _389
REMARK  161  A    between atoms: _392  and  _394
REMARK  162  A    between atoms: _394  and  _395
REMARK  163  A    between atoms: _397  and  _399
REMARK  164  A    between atoms: _399  and  _400
REMARK  165  A    between atoms: _399  and  _402
REMARK  166  A    between atoms: _402  and  _403
REMARK  167  A    between atoms: _403  and  _404
REMARK  168  A    between atoms: _407  and  _409
REMARK  169  A    between atoms: _409  and  _410
REMARK  170  A    between atoms: _409  and  _412
REMARK  171  A    between atoms: _412  and  _413
REMARK  172  A    between atoms: _415  and  _417
REMARK  173  A    between atoms: _417  and  _418
REMARK  174  A    between atoms: _417  and  _420
REMARK  175  A    between atoms: _420  and  _421
REMARK  176  A    between atoms: _424  and  _426
REMARK  177  A    between atoms: _426  and  _427
REMARK  178  A    between atoms: _426  and  _429
REMARK  179  A    between atoms: _429  and  _430
REMARK  180  A    between atoms: _430  and  _431
REMARK  181  A    between atoms: _436  and  _438
REMARK  182  A    between atoms: _438  and  _439
REMARK  183  A    between atoms: _438  and  _441
REMARK  184  A    between atoms: _441  and  _442
REMARK  185  A    between atoms: _445  and  _447
REMARK  186  A    between atoms: _447  and  _448
REMARK  187  A    between atoms: _447  and  _450
REMARK  188  A    between atoms: _450  and  _451
REMARK  189  A    between atoms: _454  and  _456
REMARK  190  A    between atoms: _456  and  _457
REMARK  191  A    between atoms: _456  and  _459
REMARK  192  A    between atoms: _459  and  _460
REMARK  193  A    between atoms: _460  and  _461
REMARK  194  A    between atoms: _460  and  _462
REMARK  195  A    between atoms: _461  and  MG_705
REMARK  196  A    between atoms: _465  and  _467
REMARK  197  A    between atoms: _467  and  _468
REMARK  198  A    between atoms: _467  and  _470
REMARK  199  A    between atoms: _470  and  _471
REMARK  200  A    between atoms: _474  and  _476
REMARK  201  A    between atoms: _476  and  _477
REMARK  202  A    between atoms: _476  and  _479
REMARK  203  A    between atoms: _479  and  _480
REMARK  204  A    between atoms: _480  and  _481
REMARK  205  A    between atoms: _481  and  _482
REMARK  206  A    between atoms: _491  and  _493
REMARK  207  A    between atoms: _493  and  _494
REMARK  208  A    between atoms: _493  and  _496
REMARK  209  A    between atoms: _496  and  _497
REMARK  210  A    between atoms: _497  and  _499
REMARK  211  A    between atoms: _499  and  MG_705
REMARK  212  A    between atoms: _500  and  _502
REMARK  213  A    between atoms: _502  and  _503
REMARK  214  A    between atoms: _502  and  _505
REMARK  215  A    between atoms: _505  and  _506
REMARK  216  A    between atoms: _506  and  _507
REMARK  217  A    between atoms: _510  and  _512
REMARK  218  A    between atoms: _512  and  _513
REMARK  219  A    between atoms: _512  and  _515
REMARK  220  A    between atoms: _515  and  _516
REMARK  221  A    between atoms: _519  and  _521
REMARK  222  A    between atoms: _521  and  _522
REMARK  223  A    between atoms: _521  and  _524
REMARK  224  A    between atoms: _524  and  _525
REMARK  225  A    between atoms: _530  and  _532
REMARK  226  A    between atoms: _532  and  _533
REMARK  227  A    between atoms: _532  and  _535
REMARK  228  A    between atoms: _535  and  _536
REMARK  229  A    between atoms: _536  and  _537
REMARK  230  A    between atoms: _537  and  _538
REMARK  231  A    between atoms: _547  and  _549
REMARK  232  A    between atoms: _549  and  _550
REMARK  233  A    between atoms: _549  and  _552
REMARK  234  A    between atoms: _552  and  _553
REMARK  235  A    between atoms: _558  and  _559
REMARK  236  A    between atoms: _561  and  _563
REMARK  237  A    between atoms: _563  and  _564
REMARK  238  A    between atoms: _563  and  _566
REMARK  239  A    between atoms: _569  and  _571
REMARK  240  A    between atoms: _571  and  _572
REMARK  241  A    between atoms: _571  and  _574
REMARK  242  A    between atoms: _574  and  _575
REMARK  243  A    between atoms: _575  and  _576
REMARK  244  A    between atoms: _578  and  _580
REMARK  245  A    between atoms: _580  and  _581
REMARK  246  A    between atoms: _580  and  _583
REMARK  247  A    between atoms: _583  and  _584
REMARK  248  A    between atoms: _587  and  _589
REMARK  249  A    between atoms: _589  and  _590
REMARK  250  A    between atoms: _589  and  _592
REMARK  251  A    between atoms: _595  and  _597
REMARK  252  A    between atoms: _597  and  _598
REMARK  253  A    between atoms: _597  and  _600
REMARK  254  A    between atoms: _600  and  _601
REMARK  255  A    between atoms: _607  and  _609
REMARK  256  A    between atoms: _609  and  _610
REMARK  257  A    between atoms: _613  and  _615
REMARK  258  A    between atoms: _615  and  _616
REMARK  259  A    between atoms: _615  and  _618
REMARK  260  A    between atoms: _618  and  _619
REMARK  261  A    between atoms: _619  and  _620
REMARK  262  A    between atoms: _625  and  _627
REMARK  263  A    between atoms: _627  and  _628
REMARK  264  A    between atoms: _627  and  _630
REMARK  265  A    between atoms: _630  and  _631
REMARK  266  A    between atoms: _634  and  _636
REMARK  267  A    between atoms: _636  and  _637
REMARK  268  A    between atoms: _636  and  _639
REMARK  269  A    between atoms: _639  and  _640
REMARK  270  A    between atoms: _643  and  _645
REMARK  271  A    between atoms: _645  and  _646
REMARK  272  A    between atoms: _645  and  _648
REMARK  273  A    between atoms: _648  and  _649
REMARK  274  A    between atoms: _649  and  _650
REMARK  275  A    between atoms: _653  and  _655
REMARK  276  A    between atoms: _655  and  _656
REMARK  277  A    between atoms: _659  and  _661
REMARK  278  A    between atoms: _661  and  _662
REMARK  279  A    between atoms: _665  and  _667
REMARK  280  A    between atoms: _667  and  _668
REMARK  281  A    between atoms: _667  and  _670
REMARK  282  A    between atoms: _670  and  _671
REMARK  283  A    between atoms: _676  and  _677
REMARK  284  A    between atoms: _679  and  _681
REMARK  285  A    between atoms: _681  and  _682
REMARK  286  A    between atoms: _681  and  _684
REMARK  287  A    between atoms: _684  and  _685
REMARK  288  A    between atoms: _688  and  _690
REMARK  289  A    between atoms: _690  and  _691
REMARK  290  A    between atoms: _690  and  _693
REMARK  291  A    between atoms: _693  and  _694
REMARK  292  A    between atoms: _694  and  _695
REMARK  293  A    between atoms: _695  and  _696
REMARK                            x       y       z     vdW  Elec       q    Type
REMARK                         _______ _______ _______ _____ _____    ______ ____
ROOT
ATOM      1  NE  ARG A   1      29.763  53.754  38.807  0.00  0.00    -0.265 N 
ATOM      2  CZ  ARG A   1      28.773  52.987  39.241  0.00  0.00    +0.342 C 
ATOM      3  NH2 ARG A   1      28.117  53.344  40.336  0.00  0.00    -0.292 N 
ATOM      4 HH21 ARG A   1      28.382  54.214  40.840  0.00  0.00    +0.255 HD
ATOM      5 HH22 ARG A   1      27.337  52.754  40.691  0.00  0.00    +0.255 HD
ATOM      6  NH1 ARG A   1      28.406  51.891  38.546  0.00  0.00    -0.292 N 
ATOM      7 HH11 ARG A   1      27.629  51.293  38.891  0.00  0.00    +0.255 HD
ATOM      8 HH12 ARG A   1      28.900  51.644  37.665  0.00  0.00    +0.255 HD
ATOM      9  HE  ARG A   1      30.275  53.457  37.952  0.00  0.00    +0.259 HD
ENDROOT
BRANCH   1  10
ATOM     10  CD  ARG A   1      30.171  54.982  39.457  0.00  0.00    +0.174 C 
BRANCH  10  11
ATOM     11  CG  ARG A   1      31.034  55.812  38.548  0.00  0.00    +0.045 C 
BRANCH  11  12
ATOM     12  CB  ARG A   1      32.484  55.304  38.391  0.00  0.00    +0.029 C 
BRANCH  12  13
ATOM     13  CA  ARG A   1      33.345  56.281  37.569  0.00  0.00    +0.133 C 
BRANCH  13  14
ATOM     14  N   ARG A   1      34.729  55.830  37.508  0.00  0.00    -0.239 NA
ATOM     15  H   ARG A   1      35.132  55.323  38.322  0.00  0.00    +0.142 HD
ENDBRANCH  13  14
BRANCH  13  16
ATOM     16  C   ARG A   1      33.313  57.651  38.249  0.00  0.00    +0.224 C 
ATOM     17  O   ARG A   1      33.585  57.754  39.447  0.00  0.00    -0.287 OA
ENDBRANCH  13  16
ENDBRANCH  12  13
ENDBRANCH  11  12
ENDBRANCH  10  11
ENDBRANCH   1  10
TORSDOF 6
REMARK  Name = ../refined-set-2016/2zcr/2zcr_pocket.pdb
REMARK  293 active torsions:
REMARK  status: ('A' for Active; 'I' for Inactive)
REMARK    1  A    between atoms: _1  and  _3
REMARK    2  A    between atoms: _3  and  _4
REMARK    3  A    between atoms: _3  and  _6
REMARK    4  A    between atoms: _6  and  _7
REMARK    5  A    between atoms: _7  and  _8
REMARK    6  A    between atoms: _10  and  _12
REMARK    7  A    between atoms: _12  and  _13
REMARK    8  A    between atoms: _12  and  _15
REMARK    9  A    between atoms: _15  and  _16
REMARK   10  A    between atoms: _21  and  _23
REMARK   11  A    between atoms: _23  and  _24
REMARK   12  A    between atoms: _23  and  _26
REMARK   13  A    between atoms: _26  and  _27
REMARK   14  A    between atoms: _29  and  _31
REMARK   15  A    between atoms: _31  and  _32
REMARK   16  A    between atoms: _31  and  _34
REMARK   17  A    between atoms: _34  and  _35
REMARK   18  A    between atoms: _35  and  _36
REMARK   19  A    between atoms: _36  and  _37
REMARK   20  A    between atoms: _37  and  _38
REMARK   21  A    between atoms: _42  and  _44
REMARK   22  A    between atoms: _44  and  _45
REMARK   23  A    between atoms: _44  and  _47
REMARK   24  A    between atoms: _47  and  _48
REMARK   25  A    between atoms: _50  and  _52
REMARK   26  A    between atoms: _52  and  _53
REMARK   27  A    between atoms: _52  and  _55
REMARK   28  A    between atoms: _55  and  _56
REMARK   29  A    between atoms: _62  and  _64
REMARK   30  A    between atoms: _64  and  _65
REMARK   31  A    between atoms: _68  and  _70
REMARK   32  A    between atoms: _70  and  _71
REMARK   33  A    between atoms: _70  and  _73
REMARK   34  A    between atoms: _73  and  _74
REMARK   35  A    between atoms: _80  and  _82
REMARK   36  A    between atoms: _82  and  _83
REMARK   37  A    between atoms: _82  and  _85
REMARK   38  A    between atoms: _85  and  _86
REMARK   39  A    between atoms: _89  and  _91
REMARK   40  A    between atoms: _91  and  _92
REMARK   41  A    between atoms: _91  and  _94
REMARK   42  A    between atoms: _97  and  _99
REMARK   43  A    between atoms: _99  and  _100
REMARK   44  A    between atoms: _99  and  _102
REMARK   45  A    between atoms: _102  and  _103
REMARK   46  A    between atoms: _106  and  _108
REMARK   47  A    between atoms: _108  and  _109
REMARK   48  A    between atoms: _108  and  _111
REMARK   49  A    between atoms: _111  and  _112
REMARK   50  A    between atoms: _117  and  _118
REMARK   51  A    between atoms: _120  and  _122
REMARK   52  A    between atoms: _122  and  _123
REMARK   53  A    between atoms: _122  and  _125
REMARK   54  A    between atoms: _127  and  _129
REMARK   55  A    between atoms: _129  and  _130
REMARK   56  A    between atoms: _129  and  _132
REMARK   57  A    between atoms: _132  and  _133
REMARK   58  A    between atoms: _133  and  _134
REMARK   59  A    between atoms: _134  and  _135
REMARK   60  A    between atoms: _144  and  _146
REMARK   61  A    between atoms: _146  and  _147
REMARK   62  A    between atoms: _146  and  _149
REMARK   63  A    between atoms: _149  and  _150
REMARK   64  A    between atoms: _153  and  _155
REMARK   65  A    between atoms: _155  and  _156
REMARK   66  A    between atoms: _155  and  _158
REMARK   67  A    between atoms: _158  and  _159
REMARK   68  A    between atoms: _162  and  _164
REMARK   69  A    between atoms: _164  and  _165
REMARK   70  A    between atoms: _164  and  _167
REMARK   71  A    between atoms: _167  and  _168
REMARK   72  A    between atoms: _171  and  _173
REMARK   73  A    between atoms: _173  and  _174
REMARK   74  A    between atoms: _173  and  _176
REMARK   75  A    between atoms: _179  and  _181
REMARK   76  A    between atoms: _181  and  _182
REMARK   77  A    between atoms: _181  and  _184
REMARK   78  A    between atoms: _184  and  _185
REMARK   79  A    between atoms: _188  and  _190
REMARK   80  A    between atoms: _190  and  _191
REMARK   81  A    between atoms: _190  and  _193
REMARK   82  A    between atoms: _193  and  _194
REMARK   83  A    between atoms: _199  and  _200
REMARK   84  A    between atoms: _202  and  _204
REMARK   85  A    between atoms: _204  and  _205
REMARK   86  A    between atoms: _204  and  _207
REMARK   87  A    between atoms: _209  and  _211
REMARK   88  A    between atoms: _211  and  _212
REMARK   89  A    between atoms: _211  and  _214
REMARK   90  A    between atoms: _217  and  _219
REMARK   91  A    between atoms: _219  and  _220
REMARK   92  A    between atoms: _223  and  _225
REMARK   93  A    between atoms: _225  and  _226
REMARK   94  A    between atoms: _228  and  _230
REMARK   95  A    between atoms: _230  and  _231
REMARK   96  A    between atoms: _230  and  _233
REMARK   97  A    between atoms: _233  and  _234
REMARK   98  A    between atoms: _237  and  _239
REMARK   99  A    between atoms: _239  and  _240
REMARK  100  A    between atoms: _239  and  _242
REMARK  101  A    between atoms: _245  and  _247
REMARK  102  A    between atoms: _247  and  _248
REMARK  103  A    between atoms: _250  and  _252
REMARK  104  A    between atoms: _252  and  _253
REMARK  105  A    between atoms: _252  and  _255
REMARK  106  A    between atoms: _255  and  _256
REMARK  107  A    between atoms: _256  and  _257
REMARK  108  A    between atoms: _260  and  _262
REMARK  109  A    between atoms: _262  and  _263
REMARK  110  A    between atoms: _262  and  _265
REMARK  111  A    between atoms: _268  and  _270
REMARK  112  A    between atoms: _270  and  _271
REMARK  113  A    between atoms: _270  and  _273
REMARK  114  A    between atoms: _273  and  _274
REMARK  115  A    between atoms: _277  and  _279
REMARK  116  A    between atoms: _279  and  _280
REMARK  117  A    between atoms: _279  and  _282
REMARK  118  A    between atoms: _282  and  _283
REMARK  119  A    between atoms: _286  and  _288
REMARK  120  A    between atoms: _288  and  _289
REMARK  121  A    between atoms: _288  and  _291
REMARK  122  A    between atoms: _291  and  _292
REMARK  123  A    between atoms: _295  and  _297
REMARK  124  A    between atoms: _297  and  _298
REMARK  125  A    between atoms: _297  and  _300
REMARK  126  A    between atoms: _300  and  _301
REMARK  127  A    between atoms: _304  and  _306
REMARK  128  A    between atoms: _306  and  _307
REMARK  129  A    between atoms: _306  and  _309
REMARK  130  A    between atoms: _309  and  _310
REMARK  131  A    between atoms: _312  and  _314
REMARK  132  A    between atoms: _314  and  _315
REMARK  133  A    between atoms: _314  and  _317
REMARK  134  A    between atoms: _317  and  _318
REMARK  135  A    between atoms: _321  and  _323
REMARK  136  A    between atoms: _323  and  _324
REMARK  137  A    between atoms: _323  and  _326
REMARK  138  A    between atoms: _326  and  _327
REMARK  139  A    between atoms: _332  and  _333
REMARK  140  A    between atoms: _335  and  _337
REMARK  141  A    between atoms: _337  and  _338
REMARK  142  A    between atoms: _337  and  _340
REMARK  143  A    between atoms: _343  and  _345
REMARK  144  A    between atoms: _345  and  _346
REMARK  145  A    between atoms: _349  and  _351
REMARK  146  A    between atoms: _351  and  _352
REMARK  147  A    between atoms: _351  and  _354
REMARK  148  A    between atoms: _354  and  _355
REMARK  149  A    between atoms: _355  and  _356
REMARK  150  A    between atoms: _356  and  _357
REMARK  151  A    between atoms: _366  and  _368
REMARK  152  A    between atoms: _368  and  _369
REMARK  153  A    between atoms: _368  and  _371
REMARK  154  A    between atoms: _371  and  _372
REMARK  155  A    between atoms: _372  and  _373
REMARK  156  A    between atoms: _373  and  _374
REMARK  157  A    between atoms: _383  and  _385
REMARK  158  A    between atoms: _385  and  _386
REMARK  159  A    between atoms: _385  and  _388
REMARK  160  A    between atoms: _388  and  _389
REMARK  161  A    between atoms: _392  and  _394
REMARK  162  A    between atoms: _394  and  _395
REMARK  163  A    between atoms: _397  and  _399
REMARK  164  A    between atoms: _399  and  _400
REMARK  165  A    between atoms: _399  and  _402
REMARK  166  A    between atoms: _402  and  _403
REMARK  167  A    between atoms: _403  and  _404
REMARK  168  A    between atoms: _407  and  _409
REMARK  169  A    between atoms: _409  and  _410
REMARK  170  A    between atoms: _409  and  _412
REMARK  171  A    between atoms: _412  and  _413
REMARK  172  A    between atoms: _415  and  _417
REMARK  173  A    between atoms: _417  and  _418
REMARK  174  A    between atoms: _417  and  _420
REMARK  175  A    between atoms: _420  and  _421
REMARK  176  A    between atoms: _424  and  _426
REMARK  177  A    between atoms: _426  and  _427
REMARK  178  A    between atoms: _426  and  _429
REMARK  179  A    between atoms: _429  and  _430
REMARK  180  A    between atoms: _430  and  _431
REMARK  181  A    between atoms: _436  and  _438
REMARK  182  A    between atoms: _438  and  _439
REMARK  183  A    between atoms: _438  and  _441
REMARK  184  A    between atoms: _441  and  _442
REMARK  185  A    between atoms: _445  and  _447
REMARK  186  A    between atoms: _447  and  _448
REMARK  187  A    between atoms: _447  and  _450
REMARK  188  A    between atoms: _450  and  _451
REMARK  189  A    between atoms: _454  and  _456
REMARK  190  A    between atoms: _456  and  _457
REMARK  191  A    between atoms: _456  and  _459
REMARK  192  A    between atoms: _459  and  _460
REMARK  193  A    between atoms: _460  and  _461
REMARK  194  A    between atoms: _460  and  _462
REMARK  195  A    between atoms: _461  and  MG_705
REMARK  196  A    between atoms: _465  and  _467
REMARK  197  A    between atoms: _467  and  _468
REMARK  198  A    between atoms: _467  and  _470
REMARK  199  A    between atoms: _470  and  _471
REMARK  200  A    between atoms: _474  and  _476
REMARK  201  A    between atoms: _476  and  _477
REMARK  202  A    between atoms: _476  and  _479
REMARK  203  A    between atoms: _479  and  _480
REMARK  204  A    between atoms: _480  and  _481
REMARK  205  A    between atoms: _481  and  _482
REMARK  206  A    between atoms: _491  and  _493
REMARK  207  A    between atoms: _493  and  _494
REMARK  208  A    between atoms: _493  and  _496
REMARK  209  A    between atoms: _496  and  _497
REMARK  210  A    between atoms: _497  and  _499
REMARK  211  A    between atoms: _499  and  MG_705
REMARK  212  A    between atoms: _500  and  _502
REMARK  213  A    between atoms: _502  and  _503
REMARK  214  A    between atoms: _502  and  _505
REMARK  215  A    between atoms: _505  and  _506
REMARK  216  A    between atoms: _506  and  _507
REMARK  217  A    between atoms: _510  and  _512
REMARK  218  A    between atoms: _512  and  _513
REMARK  219  A    between atoms: _512  and  _515
REMARK  220  A    between atoms: _515  and  _516
REMARK  221  A    between atoms: _519  and  _521
REMARK  222  A    between atoms: _521  and  _522
REMARK  223  A    between atoms: _521  and  _524
REMARK  224  A    between atoms: _524  and  _525
REMARK  225  A    between atoms: _530  and  _532
REMARK  226  A    between atoms: _532  and  _533
REMARK  227  A    between atoms: _532  and  _535
REMARK  228  A    between atoms: _535  and  _536
REMARK  229  A    between atoms: _536  and  _537
REMARK  230  A    between atoms: _537  and  _538
REMARK  231  A    between atoms: _547  and  _549
REMARK  232  A    between atoms: _549  and  _550
REMARK  233  A    between atoms: _549  and  _552
REMARK  234  A    between atoms: _552  and  _553
REMARK  235  A    between atoms: _558  and  _559
REMARK  236  A    between atoms: _561  and  _563
REMARK  237  A    between atoms: _563  and  _564
REMARK  238  A    between atoms: _563  and  _566
REMARK  239  A    between atoms: _569  and  _571
REMARK  240  A    between atoms: _571  and  _572
REMARK  241  A    between atoms: _571  and  _574
REMARK  242  A    between atoms: _574  and  _575
REMARK  243  A    between atoms: _575  and  _576
REMARK  244  A    between atoms: _578  and  _580
REMARK  245  A    between atoms: _580  and  _581
REMARK  246  A    between atoms: _580  and  _583
REMARK  247  A    between atoms: _583  and  _584
REMARK  248  A    between atoms: _587  and  _589
REMARK  249  A    between atoms: _589  and  _590
REMARK  250  A    between atoms: _589  and  _592
REMARK  251  A    between atoms: _595  and  _597
REMARK  252  A    between atoms: _597  and  _598
REMARK  253  A    between atoms: _597  and  _600
REMARK  254  A    between atoms: _600  and  _601
REMARK  255  A    between atoms: _607  and  _609
REMARK  256  A    between atoms: _609  and  _610
REMARK  257  A    between atoms: _613  and  _615
REMARK  258  A    between atoms: _615  and  _616
REMARK  259  A    between atoms: _615  and  _618
REMARK  260  A    between atoms: _618  and  _619
REMARK  261  A    between atoms: _619  and  _620
REMARK  262  A    between atoms: _625  and  _627
REMARK  263  A    between atoms: _627  and  _628
REMARK  264  A    between atoms: _627  and  _630
REMARK  265  A    between atoms: _630  and  _631
REMARK  266  A    between atoms: _634  and  _636
REMARK  267  A    between atoms: _636  and  _637
REMARK  268  A    between atoms: _636  and  _639
REMARK  269  A    between atoms: _639  and  _640
REMARK  270  A    between atoms: _643  and  _645
REMARK  271  A    between atoms: _645  and  _646
REMARK  272  A    between atoms: _645  and  _648
REMARK  273  A    between atoms: _648  and  _649
REMARK  274  A    between atoms: _649  and  _650
REMARK  275  A    between atoms: _653  and  _655
REMARK  276  A    between atoms: _655  and  _656
REMARK  277  A    between atoms: _659  and  _661
REMARK  278  A    between atoms: _661  and  _662
REMARK  279  A    between atoms: _665  and  _667
REMARK  280  A    between atoms: _667  and  _668
REMARK  281  A    between atoms: _667  and  _670
REMARK  282  A    between atoms: _670  and  _671
REMARK  283  A    between atoms: _676  and  _677
REMARK  284  A    between atoms: _679  and  _681
REMARK  285  A    between atoms: _681  and  _682
REMARK  286  A    between atoms: _681  and  _684
REMARK  287  A    between atoms: _684  and  _685
REMARK  288  A    between atoms: _688  and  _690
REMARK  289  A    between atoms: _690  and  _691
REMARK  290  A    between atoms: _690  and  _693
REMARK  291  A    between atoms: _693  and  _694
REMARK  292  A    between atoms: _694  and  _695
REMARK  293  A    between atoms: _695  and  _696
REMARK                            x       y       z     vdW  Elec       q    Type
REMARK                         _______ _______ _______ _____ _____    ______ ____
ROOT
ATOM      1  O   HOH     1      24.563  58.059  42.732  0.00  0.00    +0.000 OA
ENDROOT
TORSDOF 0
REMARK  Name = ../refined-set-2016/2zcr/2zcr_pocket.pdb
REMARK  293 active torsions:
REMARK  status: ('A' for Active; 'I' for Inactive)
REMARK    1  A    between atoms: _1  and  _3
REMARK    2  A    between atoms: _3  and  _4
REMARK    3  A    between atoms: _3  and  _6
REMARK    4  A    between atoms: _6  and  _7
REMARK    5  A    between atoms: _7  and  _8
REMARK    6  A    between atoms: _10  and  _12
REMARK    7  A    between atoms: _12  and  _13
REMARK    8  A    between atoms: _12  and  _15
REMARK    9  A    between atoms: _15  and  _16
REMARK   10  A    between atoms: _21  and  _23
REMARK   11  A    between atoms: _23  and  _24
REMARK   12  A    between atoms: _23  and  _26
REMARK   13  A    between atoms: _26  and  _27
REMARK   14  A    between atoms: _29  and  _31
REMARK   15  A    between atoms: _31  and  _32
REMARK   16  A    between atoms: _31  and  _34
REMARK   17  A    between atoms: _34  and  _35
REMARK   18  A    between atoms: _35  and  _36
REMARK   19  A    between atoms: _36  and  _37
REMARK   20  A    between atoms: _37  and  _38
REMARK   21  A    between atoms: _42  and  _44
REMARK   22  A    between atoms: _44  and  _45
REMARK   23  A    between atoms: _44  and  _47
REMARK   24  A    between atoms: _47  and  _48
REMARK   25  A    between atoms: _50  and  _52
REMARK   26  A    between atoms: _52  and  _53
REMARK   27  A    between atoms: _52  and  _55
REMARK   28  A    between atoms: _55  and  _56
REMARK   29  A    between atoms: _62  and  _64
REMARK   30  A    between atoms: _64  and  _65
REMARK   31  A    between atoms: _68  and  _70
REMARK   32  A    between atoms: _70  and  _71
REMARK   33  A    between atoms: _70  and  _73
REMARK   34  A    between atoms: _73  and  _74
REMARK   35  A    between atoms: _80  and  _82
REMARK   36  A    between atoms: _82  and  _83
REMARK   37  A    between atoms: _82  and  _85
REMARK   38  A    between atoms: _85  and  _86
REMARK   39  A    between atoms: _89  and  _91
REMARK   40  A    between atoms: _91  and  _92
REMARK   41  A    between atoms: _91  and  _94
REMARK   42  A    between atoms: _97  and  _99
REMARK   43  A    between atoms: _99  and  _100
REMARK   44  A    between atoms: _99  and  _102
REMARK   45  A    between atoms: _102  and  _103
REMARK   46  A    between atoms: _106  and  _108
REMARK   47  A    between atoms: _108  and  _109
REMARK   48  A    between atoms: _108  and  _111
REMARK   49  A    between atoms: _111  and  _112
REMARK   50  A    between atoms: _117  and  _118
REMARK   51  A    between atoms: _120  and  _122
REMARK   52  A    between atoms: _122  and  _123
REMARK   53  A    between atoms: _122  and  _125
REMARK   54  A    between atoms: _127  and  _129
REMARK   55  A    between atoms: _129  and  _130
REMARK   56  A    between atoms: _129  and  _132
REMARK   57  A    between atoms: _132  and  _133
REMARK   58  A    between atoms: _133  and  _134
REMARK   59  A    between atoms: _134  and  _135
REMARK   60  A    between atoms: _144  and  _146
REMARK   61  A    between atoms: _146  and  _147
REMARK   62  A    between atoms: _146  and  _149
REMARK   63  A    between atoms: _149  and  _150
REMARK   64  A    between atoms: _153  and  _155
REMARK   65  A    between atoms: _155  and  _156
REMARK   66  A    between atoms: _155  and  _158
REMARK   67  A    between atoms: _158  and  _159
REMARK   68  A    between atoms: _162  and  _164
REMARK   69  A    between atoms: _164  and  _165
REMARK   70  A    between atoms: _164  and  _167
REMARK   71  A    between atoms: _167  and  _168
REMARK   72  A    between atoms: _171  and  _173
REMARK   73  A    between atoms: _173  and  _174
REMARK   74  A    between atoms: _173  and  _176
REMARK   75  A    between atoms: _179  and  _181
REMARK   76  A    between atoms: _181  and  _182
REMARK   77  A    between atoms: _181  and  _184
REMARK   78  A    between atoms: _184  and  _185
REMARK   79  A    between atoms: _188  and  _190
REMARK   80  A    between atoms: _190  and  _191
REMARK   81  A    between atoms: _190  and  _193
REMARK   82  A    between atoms: _193  and  _194
REMARK   83  A    between atoms: _199  and  _200
REMARK   84  A    between atoms: _202  and  _204
REMARK   85  A    between atoms: _204  and  _205
REMARK   86  A    between atoms: _204  and  _207
REMARK   87  A    between atoms: _209  and  _211
REMARK   88  A    between atoms: _211  and  _212
REMARK   89  A    between atoms: _211  and  _214
REMARK   90  A    between atoms: _217  and  _219
REMARK   91  A    between atoms: _219  and  _220
REMARK   92  A    between atoms: _223  and  _225
REMARK   93  A    between atoms: _225  and  _226
REMARK   94  A    between atoms: _228  and  _230
REMARK   95  A    between atoms: _230  and  _231
REMARK   96  A    between atoms: _230  and  _233
REMARK   97  A    between atoms: _233  and  _234
REMARK   98  A    between atoms: _237  and  _239
REMARK   99  A    between atoms: _239  and  _240
REMARK  100  A    between atoms: _239  and  _242
REMARK  101  A    between atoms: _245  and  _247
REMARK  102  A    between atoms: _247  and  _248
REMARK  103  A    between atoms: _250  and  _252
REMARK  104  A    between atoms: _252  and  _253
REMARK  105  A    between atoms: _252  and  _255
REMARK  106  A    between atoms: _255  and  _256
REMARK  107  A    between atoms: _256  and  _257
REMARK  108  A    between atoms: _260  and  _262
REMARK  109  A    between atoms: _262  and  _263
REMARK  110  A    between atoms: _262  and  _265
REMARK  111  A    between atoms: _268  and  _270
REMARK  112  A    between atoms: _270  and  _271
REMARK  113  A    between atoms: _270  and  _273
REMARK  114  A    between atoms: _273  and  _274
REMARK  115  A    between atoms: _277  and  _279
REMARK  116  A    between atoms: _279  and  _280
REMARK  117  A    between atoms: _279  and  _282
REMARK  118  A    between atoms: _282  and  _283
REMARK  119  A    between atoms: _286  and  _288
REMARK  120  A    between atoms: _288  and  _289
REMARK  121  A    between atoms: _288  and  _291
REMARK  122  A    between atoms: _291  and  _292
REMARK  123  A    between atoms: _295  and  _297
REMARK  124  A    between atoms: _297  and  _298
REMARK  125  A    between atoms: _297  and  _300
REMARK  126  A    between atoms: _300  and  _301
REMARK  127  A    between atoms: _304  and  _306
REMARK  128  A    between atoms: _306  and  _307
REMARK  129  A    between atoms: _306  and  _309
REMARK  130  A    between atoms: _309  and  _310
REMARK  131  A    between atoms: _312  and  _314
REMARK  132  A    between atoms: _314  and  _315
REMARK  133  A    between atoms: _314  and  _317
REMARK  134  A    between atoms: _317  and  _318
REMARK  135  A    between atoms: _321  and  _323
REMARK  136  A    between atoms: _323  and  _324
REMARK  137  A    between atoms: _323  and  _326
REMARK  138  A    between atoms: _326  and  _327
REMARK  139  A    between atoms: _332  and  _333
REMARK  140  A    between atoms: _335  and  _337
REMARK  141  A    between atoms: _337  and  _338
REMARK  142  A    between atoms: _337  and  _340
REMARK  143  A    between atoms: _343  and  _345
REMARK  144  A    between atoms: _345  and  _346
REMARK  145  A    between atoms: _349  and  _351
REMARK  146  A    between atoms: _351  and  _352
REMARK  147  A    between atoms: _351  and  _354
REMARK  148  A    between atoms: _354  and  _355
REMARK  149  A    between atoms: _355  and  _356
REMARK  150  A    between atoms: _356  and  _357
REMARK  151  A    between atoms: _366  and  _368
REMARK  152  A    between atoms: _368  and  _369
REMARK  153  A    between atoms: _368  and  _371
REMARK  154  A    between atoms: _371  and  _372
REMARK  155  A    between atoms: _372  and  _373
REMARK  156  A    between atoms: _373  and  _374
REMARK  157  A    between atoms: _383  and  _385
REMARK  158  A    between atoms: _385  and  _386
REMARK  159  A    between atoms: _385  and  _388
REMARK  160  A    between atoms: _388  and  _389
REMARK  161  A    between atoms: _392  and  _394
REMARK  162  A    between atoms: _394  and  _395
REMARK  163  A    between atoms: _397  and  _399
REMARK  164  A    between atoms: _399  and  _400
REMARK  165  A    between atoms: _399  and  _402
REMARK  166  A    between atoms: _402  and  _403
REMARK  167  A    between atoms: _403  and  _404
REMARK  168  A    between atoms: _407  and  _409
REMARK  169  A    between atoms: _409  and  _410
REMARK  170  A    between atoms: _409  and  _412
REMARK  171  A    between atoms: _412  and  _413
REMARK  172  A    between atoms: _415  and  _417
REMARK  173  A    between atoms: _417  and  _418
REMARK  174  A    between atoms: _417  and  _420
REMARK  175  A    between atoms: _420  and  _421
REMARK  176  A    between atoms: _424  and  _426
REMARK  177  A    between atoms: _426  and  _427
REMARK  178  A    between atoms: _426  and  _429
REMARK  179  A    between atoms: _429  and  _430
REMARK  180  A    between atoms: _430  and  _431
REMARK  181  A    between atoms: _436  and  _438
REMARK  182  A    between atoms: _438  and  _439
REMARK  183  A    between atoms: _438  and  _441
REMARK  184  A    between atoms: _441  and  _442
REMARK  185  A    between atoms: _445  and  _447
REMARK  186  A    between atoms: _447  and  _448
REMARK  187  A    between atoms: _447  and  _450
REMARK  188  A    between atoms: _450  and  _451
REMARK  189  A    between atoms: _454  and  _456
REMARK  190  A    between atoms: _456  and  _457
REMARK  191  A    between atoms: _456  and  _459
REMARK  192  A    between atoms: _459  and  _460
REMARK  193  A    between atoms: _460  and  _461
REMARK  194  A    between atoms: _460  and  _462
REMARK  195  A    between atoms: _461  and  MG_705
REMARK  196  A    between atoms: _465  and  _467
REMARK  197  A    between atoms: _467  and  _468
REMARK  198  A    between atoms: _467  and  _470
REMARK  199  A    between atoms: _470  and  _471
REMARK  200  A    between atoms: _474  and  _476
REMARK  201  A    between atoms: _476  and  _477
REMARK  202  A    between atoms: _476  and  _479
REMARK  203  A    between atoms: _479  and  _480
REMARK  204  A    between atoms: _480  and  _481
REMARK  205  A    between atoms: _481  and  _482
REMARK  206  A    between atoms: _491  and  _493
REMARK  207  A    between atoms: _493  and  _494
REMARK  208  A    between atoms: _493  and  _496
REMARK  209  A    between atoms: _496  and  _497
REMARK  210  A    between atoms: _497  and  _499
REMARK  211  A    between atoms: _499  and  MG_705
REMARK  212  A    between atoms: _500  and  _502
REMARK  213  A    between atoms: _502  and  _503
REMARK  214  A    between atoms: _502  and  _505
REMARK  215  A    between atoms: _505  and  _506
REMARK  216  A    between atoms: _506  and  _507
REMARK  217  A    between atoms: _510  and  _512
REMARK  218  A    between atoms: _512  and  _513
REMARK  219  A    between atoms: _512  and  _515
REMARK  220  A    between atoms: _515  and  _516
REMARK  221  A    between atoms: _519  and  _521
REMARK  222  A    between atoms: _521  and  _522
REMARK  223  A    between atoms: _521  and  _524
REMARK  224  A    between atoms: _524  and  _525
REMARK  225  A    between atoms: _530  and  _532
REMARK  226  A    between atoms: _532  and  _533
REMARK  227  A    between atoms: _532  and  _535
REMARK  228  A    between atoms: _535  and  _536
REMARK  229  A    between atoms: _536  and  _537
REMARK  230  A    between atoms: _537  and  _538
REMARK  231  A    between atoms: _547  and  _549
REMARK  232  A    between atoms: _549  and  _550
REMARK  233  A    between atoms: _549  and  _552
REMARK  234  A    between atoms: _552  and  _553
REMARK  235  A    between atoms: _558  and  _559
REMARK  236  A    between atoms: _561  and  _563
REMARK  237  A    between atoms: _563  and  _564
REMARK  238  A    between atoms: _563  and  _566
REMARK  239  A    between atoms: _569  and  _571
REMARK  240  A    between atoms: _571  and  _572
REMARK  241  A    between atoms: _571  and  _574
REMARK  242  A    between atoms: _574  and  _575
REMARK  243  A    between atoms: _575  and  _576
REMARK  244  A    between atoms: _578  and  _580
REMARK  245  A    between atoms: _580  and  _581
REMARK  246  A    between atoms: _580  and  _583
REMARK  247  A    between atoms: _583  and  _584
REMARK  248  A    between atoms: _587  and  _589
REMARK  249  A    between atoms: _589  and  _590
REMARK  250  A    between atoms: _589  and  _592
REMARK  251  A    between atoms: _595  and  _597
REMARK  252  A    between atoms: _597  and  _598
REMARK  253  A    between atoms: _597  and  _600
REMARK  254  A    between atoms: _600  and  _601
REMARK  255  A    between atoms: _607  and  _609
REMARK  256  A    between atoms: _609  and  _610
REMARK  257  A    between atoms: _613  and  _615
REMARK  258  A    between atoms: _615  and  _616
REMARK  259  A    between atoms: _615  and  _618
REMARK  260  A    between atoms: _618  and  _619
REMARK  261  A    between atoms: _619  and  _620
REMARK  262  A    between atoms: _625  and  _627
REMARK  263  A    between atoms: _627  and  _628
REMARK  264  A    between atoms: _627  and  _630
REMARK  265  A    between atoms: _630  and  _631
REMARK  266  A    between atoms: _634  and  _636
REMARK  267  A    between atoms: _636  and  _637
REMARK  268  A    between atoms: _636  and  _639
REMARK  269  A    between atoms: _639  and  _640
REMARK  270  A    between atoms: _643  and  _645
REMARK  271  A    between atoms: _645  and  _646
REMARK  272  A    between atoms: _645  and  _648
REMARK  273  A    between atoms: _648  and  _649
REMARK  274  A    between atoms: _649  and  _650
REMARK  275  A    between atoms: _653  and  _655
REMARK  276  A    between atoms: _655  and  _656
REMARK  277  A    between atoms: _659  and  _661
REMARK  278  A    between atoms: _661  and  _662
REMARK  279  A    between atoms: _665  and  _667
REMARK  280  A    between atoms: _667  and  _668
REMARK  281  A    between atoms: _667  and  _670
REMARK  282  A    between atoms: _670  and  _671
REMARK  283  A    between atoms: _676  and  _677
REMARK  284  A    between atoms: _679  and  _681
REMARK  285  A    between atoms: _681  and  _682
REMARK  286  A    between atoms: _681  and  _684
REMARK  287  A    between atoms: _684  and  _685
REMARK  288  A    between atoms: _688  and  _690
REMARK  289  A    between atoms: _690  and  _691
REMARK  290  A    between atoms: _690  and  _693
REMARK  291  A    between atoms: _693  and  _694
REMARK  292  A    between atoms: _694  and  _695
REMARK  293  A    between atoms: _695  and  _696
REMARK                            x       y       z     vdW  Elec       q    Type
REMARK                         _______ _______ _______ _____ _____    ______ ____
ROOT
ATOM      1  O   HOH     1      23.185  55.460  39.662  0.00  0.00    +0.000 OA
ENDROOT
TORSDOF 0
REMARK  Name = ../refined-set-2016/2zcr/2zcr_pocket.pdb
REMARK  293 active torsions:
REMARK  status: ('A' for Active; 'I' for Inactive)
REMARK    1  A    between atoms: _1  and  _3
REMARK    2  A    between atoms: _3  and  _4
REMARK    3  A    between atoms: _3  and  _6
REMARK    4  A    between atoms: _6  and  _7
REMARK    5  A    between atoms: _7  and  _8
REMARK    6  A    between atoms: _10  and  _12
REMARK    7  A    between atoms: _12  and  _13
REMARK    8  A    between atoms: _12  and  _15
REMARK    9  A    between atoms: _15  and  _16
REMARK   10  A    between atoms: _21  and  _23
REMARK   11  A    between atoms: _23  and  _24
REMARK   12  A    between atoms: _23  and  _26
REMARK   13  A    between atoms: _26  and  _27
REMARK   14  A    between atoms: _29  and  _31
REMARK   15  A    between atoms: _31  and  _32
REMARK   16  A    between atoms: _31  and  _34
REMARK   17  A    between atoms: _34  and  _35
REMARK   18  A    between atoms: _35  and  _36
REMARK   19  A    between atoms: _36  and  _37
REMARK   20  A    between atoms: _37  and  _38
REMARK   21  A    between atoms: _42  and  _44
REMARK   22  A    between atoms: _44  and  _45
REMARK   23  A    between atoms: _44  and  _47
REMARK   24  A    between atoms: _47  and  _48
REMARK   25  A    between atoms: _50  and  _52
REMARK   26  A    between atoms: _52  and  _53
REMARK   27  A    between atoms: _52  and  _55
REMARK   28  A    between atoms: _55  and  _56
REMARK   29  A    between atoms: _62  and  _64
REMARK   30  A    between atoms: _64  and  _65
REMARK   31  A    between atoms: _68  and  _70
REMARK   32  A    between atoms: _70  and  _71
REMARK   33  A    between atoms: _70  and  _73
REMARK   34  A    between atoms: _73  and  _74
REMARK   35  A    between atoms: _80  and  _82
REMARK   36  A    between atoms: _82  and  _83
REMARK   37  A    between atoms: _82  and  _85
REMARK   38  A    between atoms: _85  and  _86
REMARK   39  A    between atoms: _89  and  _91
REMARK   40  A    between atoms: _91  and  _92
REMARK   41  A    between atoms: _91  and  _94
REMARK   42  A    between atoms: _97  and  _99
REMARK   43  A    between atoms: _99  and  _100
REMARK   44  A    between atoms: _99  and  _102
REMARK   45  A    between atoms: _102  and  _103
REMARK   46  A    between atoms: _106  and  _108
REMARK   47  A    between atoms: _108  and  _109
REMARK   48  A    between atoms: _108  and  _111
REMARK   49  A    between atoms: _111  and  _112
REMARK   50  A    between atoms: _117  and  _118
REMARK   51  A    between atoms: _120  and  _122
REMARK   52  A    between atoms: _122  and  _123
REMARK   53  A    between atoms: _122  and  _125
REMARK   54  A    between atoms: _127  and  _129
REMARK   55  A    between atoms: _129  and  _130
REMARK   56  A    between atoms: _129  and  _132
REMARK   57  A    between atoms: _132  and  _133
REMARK   58  A    between atoms: _133  and  _134
REMARK   59  A    between atoms: _134  and  _135
REMARK   60  A    between atoms: _144  and  _146
REMARK   61  A    between atoms: _146  and  _147
REMARK   62  A    between atoms: _146  and  _149
REMARK   63  A    between atoms: _149  and  _150
REMARK   64  A    between atoms: _153  and  _155
REMARK   65  A    between atoms: _155  and  _156
REMARK   66  A    between atoms: _155  and  _158
REMARK   67  A    between atoms: _158  and  _159
REMARK   68  A    between atoms: _162  and  _164
REMARK   69  A    between atoms: _164  and  _165
REMARK   70  A    between atoms: _164  and  _167
REMARK   71  A    between atoms: _167  and  _168
REMARK   72  A    between atoms: _171  and  _173
REMARK   73  A    between atoms: _173  and  _174
REMARK   74  A    between atoms: _173  and  _176
REMARK   75  A    between atoms: _179  and  _181
REMARK   76  A    between atoms: _181  and  _182
REMARK   77  A    between atoms: _181  and  _184
REMARK   78  A    between atoms: _184  and  _185
REMARK   79  A    between atoms: _188  and  _190
REMARK   80  A    between atoms: _190  and  _191
REMARK   81  A    between atoms: _190  and  _193
REMARK   82  A    between atoms: _193  and  _194
REMARK   83  A    between atoms: _199  and  _200
REMARK   84  A    between atoms: _202  and  _204
REMARK   85  A    between atoms: _204  and  _205
REMARK   86  A    between atoms: _204  and  _207
REMARK   87  A    between atoms: _209  and  _211
REMARK   88  A    between atoms: _211  and  _212
REMARK   89  A    between atoms: _211  and  _214
REMARK   90  A    between atoms: _217  and  _219
REMARK   91  A    between atoms: _219  and  _220
REMARK   92  A    between atoms: _223  and  _225
REMARK   93  A    between atoms: _225  and  _226
REMARK   94  A    between atoms: _228  and  _230
REMARK   95  A    between atoms: _230  and  _231
REMARK   96  A    between atoms: _230  and  _233
REMARK   97  A    between atoms: _233  and  _234
REMARK   98  A    between atoms: _237  and  _239
REMARK   99  A    between atoms: _239  and  _240
REMARK  100  A    between atoms: _239  and  _242
REMARK  101  A    between atoms: _245  and  _247
REMARK  102  A    between atoms: _247  and  _248
REMARK  103  A    between atoms: _250  and  _252
REMARK  104  A    between atoms: _252  and  _253
REMARK  105  A    between atoms: _252  and  _255
REMARK  106  A    between atoms: _255  and  _256
REMARK  107  A    between atoms: _256  and  _257
REMARK  108  A    between atoms: _260  and  _262
REMARK  109  A    between atoms: _262  and  _263
REMARK  110  A    between atoms: _262  and  _265
REMARK  111  A    between atoms: _268  and  _270
REMARK  112  A    between atoms: _270  and  _271
REMARK  113  A    between atoms: _270  and  _273
REMARK  114  A    between atoms: _273  and  _274
REMARK  115  A    between atoms: _277  and  _279
REMARK  116  A    between atoms: _279  and  _280
REMARK  117  A    between atoms: _279  and  _282
REMARK  118  A    between atoms: _282  and  _283
REMARK  119  A    between atoms: _286  and  _288
REMARK  120  A    between atoms: _288  and  _289
REMARK  121  A    between atoms: _288  and  _291
REMARK  122  A    between atoms: _291  and  _292
REMARK  123  A    between atoms: _295  and  _297
REMARK  124  A    between atoms: _297  and  _298
REMARK  125  A    between atoms: _297  and  _300
REMARK  126  A    between atoms: _300  and  _301
REMARK  127  A    between atoms: _304  and  _306
REMARK  128  A    between atoms: _306  and  _307
REMARK  129  A    between atoms: _306  and  _309
REMARK  130  A    between atoms: _309  and  _310
REMARK  131  A    between atoms: _312  and  _314
REMARK  132  A    between atoms: _314  and  _315
REMARK  133  A    between atoms: _314  and  _317
REMARK  134  A    between atoms: _317  and  _318
REMARK  135  A    between atoms: _321  and  _323
REMARK  136  A    between atoms: _323  and  _324
REMARK  137  A    between atoms: _323  and  _326
REMARK  138  A    between atoms: _326  and  _327
REMARK  139  A    between atoms: _332  and  _333
REMARK  140  A    between atoms: _335  and  _337
REMARK  141  A    between atoms: _337  and  _338
REMARK  142  A    between atoms: _337  and  _340
REMARK  143  A    between atoms: _343  and  _345
REMARK  144  A    between atoms: _345  and  _346
REMARK  145  A    between atoms: _349  and  _351
REMARK  146  A    between atoms: _351  and  _352
REMARK  147  A    between atoms: _351  and  _354
REMARK  148  A    between atoms: _354  and  _355
REMARK  149  A    between atoms: _355  and  _356
REMARK  150  A    between atoms: _356  and  _357
REMARK  151  A    between atoms: _366  and  _368
REMARK  152  A    between atoms: _368  and  _369
REMARK  153  A    between atoms: _368  and  _371
REMARK  154  A    between atoms: _371  and  _372
REMARK  155  A    between atoms: _372  and  _373
REMARK  156  A    between atoms: _373  and  _374
REMARK  157  A    between atoms: _383  and  _385
REMARK  158  A    between atoms: _385  and  _386
REMARK  159  A    between atoms: _385  and  _388
REMARK  160  A    between atoms: _388  and  _389
REMARK  161  A    between atoms: _392  and  _394
REMARK  162  A    between atoms: _394  and  _395
REMARK  163  A    between atoms: _397  and  _399
REMARK  164  A    between atoms: _399  and  _400
REMARK  165  A    between atoms: _399  and  _402
REMARK  166  A    between atoms: _402  and  _403
REMARK  167  A    between atoms: _403  and  _404
REMARK  168  A    between atoms: _407  and  _409
REMARK  169  A    between atoms: _409  and  _410
REMARK  170  A    between atoms: _409  and  _412
REMARK  171  A    between atoms: _412  and  _413
REMARK  172  A    between atoms: _415  and  _417
REMARK  173  A    between atoms: _417  and  _418
REMARK  174  A    between atoms: _417  and  _420
REMARK  175  A    between atoms: _420  and  _421
REMARK  176  A    between atoms: _424  and  _426
REMARK  177  A    between atoms: _426  and  _427
REMARK  178  A    between atoms: _426  and  _429
REMARK  179  A    between atoms: _429  and  _430
REMARK  180  A    between atoms: _430  and  _431
REMARK  181  A    between atoms: _436  and  _438
REMARK  182  A    between atoms: _438  and  _439
REMARK  183  A    between atoms: _438  and  _441
REMARK  184  A    between atoms: _441  and  _442
REMARK  185  A    between atoms: _445  and  _447
REMARK  186  A    between atoms: _447  and  _448
REMARK  187  A    between atoms: _447  and  _450
REMARK  188  A    between atoms: _450  and  _451
REMARK  189  A    between atoms: _454  and  _456
REMARK  190  A    between atoms: _456  and  _457
REMARK  191  A    between atoms: _456  and  _459
REMARK  192  A    between atoms: _459  and  _460
REMARK  193  A    between atoms: _460  and  _461
REMARK  194  A    between atoms: _460  and  _462
REMARK  195  A    between atoms: _461  and  MG_705
REMARK  196  A    between atoms: _465  and  _467
REMARK  197  A    between atoms: _467  and  _468
REMARK  198  A    between atoms: _467  and  _470
REMARK  199  A    between atoms: _470  and  _471
REMARK  200  A    between atoms: _474  and  _476
REMARK  201  A    between atoms: _476  and  _477
REMARK  202  A    between atoms: _476  and  _479
REMARK  203  A    between atoms: _479  and  _480
REMARK  204  A    between atoms: _480  and  _481
REMARK  205  A    between atoms: _481  and  _482
REMARK  206  A    between atoms: _491  and  _493
REMARK  207  A    between atoms: _493  and  _494
REMARK  208  A    between atoms: _493  and  _496
REMARK  209  A    between atoms: _496  and  _497
REMARK  210  A    between atoms: _497  and  _499
REMARK  211  A    between atoms: _499  and  MG_705
REMARK  212  A    between atoms: _500  and  _502
REMARK  213  A    between atoms: _502  and  _503
REMARK  214  A    between atoms: _502  and  _505
REMARK  215  A    between atoms: _505  and  _506
REMARK  216  A    between atoms: _506  and  _507
REMARK  217  A    between atoms: _510  and  _512
REMARK  218  A    between atoms: _512  and  _513
REMARK  219  A    between atoms: _512  and  _515
REMARK  220  A    between atoms: _515  and  _516
REMARK  221  A    between atoms: _519  and  _521
REMARK  222  A    between atoms: _521  and  _522
REMARK  223  A    between atoms: _521  and  _524
REMARK  224  A    between atoms: _524  and  _525
REMARK  225  A    between atoms: _530  and  _532
REMARK  226  A    between atoms: _532  and  _533
REMARK  227  A    between atoms: _532  and  _535
REMARK  228  A    between atoms: _535  and  _536
REMARK  229  A    between atoms: _536  and  _537
REMARK  230  A    between atoms: _537  and  _538
REMARK  231  A    between atoms: _547  and  _549
REMARK  232  A    between atoms: _549  and  _550
REMARK  233  A    between atoms: _549  and  _552
REMARK  234  A    between atoms: _552  and  _553
REMARK  235  A    between atoms: _558  and  _559
REMARK  236  A    between atoms: _561  and  _563
REMARK  237  A    between atoms: _563  and  _564
REMARK  238  A    between atoms: _563  and  _566
REMARK  239  A    between atoms: _569  and  _571
REMARK  240  A    between atoms: _571  and  _572
REMARK  241  A    between atoms: _571  and  _574
REMARK  242  A    between atoms: _574  and  _575
REMARK  243  A    between atoms: _575  and  _576
REMARK  244  A    between atoms: _578  and  _580
REMARK  245  A    between atoms: _580  and  _581
REMARK  246  A    between atoms: _580  and  _583
REMARK  247  A    between atoms: _583  and  _584
REMARK  248  A    between atoms: _587  and  _589
REMARK  249  A    between atoms: _589  and  _590
REMARK  250  A    between atoms: _589  and  _592
REMARK  251  A    between atoms: _595  and  _597
REMARK  252  A    between atoms: _597  and  _598
REMARK  253  A    between atoms: _597  and  _600
REMARK  254  A    between atoms: _600  and  _601
REMARK  255  A    between atoms: _607  and  _609
REMARK  256  A    between atoms: _609  and  _610
REMARK  257  A    between atoms: _613  and  _615
REMARK  258  A    between atoms: _615  and  _616
REMARK  259  A    between atoms: _615  and  _618
REMARK  260  A    between atoms: _618  and  _619
REMARK  261  A    between atoms: _619  and  _620
REMARK  262  A    between atoms: _625  and  _627
REMARK  263  A    between atoms: _627  and  _628
REMARK  264  A    between atoms: _627  and  _630
REMARK  265  A    between atoms: _630  and  _631
REMARK  266  A    between atoms: _634  and  _636
REMARK  267  A    between atoms: _636  and  _637
REMARK  268  A    between atoms: _636  and  _639
REMARK  269  A    between atoms: _639  and  _640
REMARK  270  A    between atoms: _643  and  _645
REMARK  271  A    between atoms: _645  and  _646
REMARK  272  A    between atoms: _645  and  _648
REMARK  273  A    between atoms: _648  and  _649
REMARK  274  A    between atoms: _649  and  _650
REMARK  275  A    between atoms: _653  and  _655
REMARK  276  A    between atoms: _655  and  _656
REMARK  277  A    between atoms: _659  and  _661
REMARK  278  A    between atoms: _661  and  _662
REMARK  279  A    between atoms: _665  and  _667
REMARK  280  A    between atoms: _667  and  _668
REMARK  281  A    between atoms: _667  and  _670
REMARK  282  A    between atoms: _670  and  _671
REMARK  283  A    between atoms: _676  and  _677
REMARK  284  A    between atoms: _679  and  _681
REMARK  285  A    between atoms: _681  and  _682
REMARK  286  A    between atoms: _681  and  _684
REMARK  287  A    between atoms: _684  and  _685
REMARK  288  A    between atoms: _688  and  _690
REMARK  289  A    between atoms: _690  and  _691
REMARK  290  A    between atoms: _690  and  _693
REMARK  291  A    between atoms: _693  and  _694
REMARK  292  A    between atoms: _694  and  _695
REMARK  293  A    between atoms: _695  and  _696
REMARK                            x       y       z     vdW  Elec       q    Type
REMARK                         _______ _______ _______ _____ _____    ______ ____
ROOT
ATOM      1  O   HOH     1      27.948  53.056  28.489  0.00  0.00    +0.000 OA
ENDROOT
TORSDOF 0
REMARK  Name = ../refined-set-2016/2zcr/2zcr_pocket.pdb
REMARK  293 active torsions:
REMARK  status: ('A' for Active; 'I' for Inactive)
REMARK    1  A    between atoms: _1  and  _3
REMARK    2  A    between atoms: _3  and  _4
REMARK    3  A    between atoms: _3  and  _6
REMARK    4  A    between atoms: _6  and  _7
REMARK    5  A    between atoms: _7  and  _8
REMARK    6  A    between atoms: _10  and  _12
REMARK    7  A    between atoms: _12  and  _13
REMARK    8  A    between atoms: _12  and  _15
REMARK    9  A    between atoms: _15  and  _16
REMARK   10  A    between atoms: _21  and  _23
REMARK   11  A    between atoms: _23  and  _24
REMARK   12  A    between atoms: _23  and  _26
REMARK   13  A    between atoms: _26  and  _27
REMARK   14  A    between atoms: _29  and  _31
REMARK   15  A    between atoms: _31  and  _32
REMARK   16  A    between atoms: _31  and  _34
REMARK   17  A    between atoms: _34  and  _35
REMARK   18  A    between atoms: _35  and  _36
REMARK   19  A    between atoms: _36  and  _37
REMARK   20  A    between atoms: _37  and  _38
REMARK   21  A    between atoms: _42  and  _44
REMARK   22  A    between atoms: _44  and  _45
REMARK   23  A    between atoms: _44  and  _47
REMARK   24  A    between atoms: _47  and  _48
REMARK   25  A    between atoms: _50  and  _52
REMARK   26  A    between atoms: _52  and  _53
REMARK   27  A    between atoms: _52  and  _55
REMARK   28  A    between atoms: _55  and  _56
REMARK   29  A    between atoms: _62  and  _64
REMARK   30  A    between atoms: _64  and  _65
REMARK   31  A    between atoms: _68  and  _70
REMARK   32  A    between atoms: _70  and  _71
REMARK   33  A    between atoms: _70  and  _73
REMARK   34  A    between atoms: _73  and  _74
REMARK   35  A    between atoms: _80  and  _82
REMARK   36  A    between atoms: _82  and  _83
REMARK   37  A    between atoms: _82  and  _85
REMARK   38  A    between atoms: _85  and  _86
REMARK   39  A    between atoms: _89  and  _91
REMARK   40  A    between atoms: _91  and  _92
REMARK   41  A    between atoms: _91  and  _94
REMARK   42  A    between atoms: _97  and  _99
REMARK   43  A    between atoms: _99  and  _100
REMARK   44  A    between atoms: _99  and  _102
REMARK   45  A    between atoms: _102  and  _103
REMARK   46  A    between atoms: _106  and  _108
REMARK   47  A    between atoms: _108  and  _109
REMARK   48  A    between atoms: _108  and  _111
REMARK   49  A    between atoms: _111  and  _112
REMARK   50  A    between atoms: _117  and  _118
REMARK   51  A    between atoms: _120  and  _122
REMARK   52  A    between atoms: _122  and  _123
REMARK   53  A    between atoms: _122  and  _125
REMARK   54  A    between atoms: _127  and  _129
REMARK   55  A    between atoms: _129  and  _130
REMARK   56  A    between atoms: _129  and  _132
REMARK   57  A    between atoms: _132  and  _133
REMARK   58  A    between atoms: _133  and  _134
REMARK   59  A    between atoms: _134  and  _135
REMARK   60  A    between atoms: _144  and  _146
REMARK   61  A    between atoms: _146  and  _147
REMARK   62  A    between atoms: _146  and  _149
REMARK   63  A    between atoms: _149  and  _150
REMARK   64  A    between atoms: _153  and  _155
REMARK   65  A    between atoms: _155  and  _156
REMARK   66  A    between atoms: _155  and  _158
REMARK   67  A    between atoms: _158  and  _159
REMARK   68  A    between atoms: _162  and  _164
REMARK   69  A    between atoms: _164  and  _165
REMARK   70  A    between atoms: _164  and  _167
REMARK   71  A    between atoms: _167  and  _168
REMARK   72  A    between atoms: _171  and  _173
REMARK   73  A    between atoms: _173  and  _174
REMARK   74  A    between atoms: _173  and  _176
REMARK   75  A    between atoms: _179  and  _181
REMARK   76  A    between atoms: _181  and  _182
REMARK   77  A    between atoms: _181  and  _184
REMARK   78  A    between atoms: _184  and  _185
REMARK   79  A    between atoms: _188  and  _190
REMARK   80  A    between atoms: _190  and  _191
REMARK   81  A    between atoms: _190  and  _193
REMARK   82  A    between atoms: _193  and  _194
REMARK   83  A    between atoms: _199  and  _200
REMARK   84  A    between atoms: _202  and  _204
REMARK   85  A    between atoms: _204  and  _205
REMARK   86  A    between atoms: _204  and  _207
REMARK   87  A    between atoms: _209  and  _211
REMARK   88  A    between atoms: _211  and  _212
REMARK   89  A    between atoms: _211  and  _214
REMARK   90  A    between atoms: _217  and  _219
REMARK   91  A    between atoms: _219  and  _220
REMARK   92  A    between atoms: _223  and  _225
REMARK   93  A    between atoms: _225  and  _226
REMARK   94  A    between atoms: _228  and  _230
REMARK   95  A    between atoms: _230  and  _231
REMARK   96  A    between atoms: _230  and  _233
REMARK   97  A    between atoms: _233  and  _234
REMARK   98  A    between atoms: _237  and  _239
REMARK   99  A    between atoms: _239  and  _240
REMARK  100  A    between atoms: _239  and  _242
REMARK  101  A    between atoms: _245  and  _247
REMARK  102  A    between atoms: _247  and  _248
REMARK  103  A    between atoms: _250  and  _252
REMARK  104  A    between atoms: _252  and  _253
REMARK  105  A    between atoms: _252  and  _255
REMARK  106  A    between atoms: _255  and  _256
REMARK  107  A    between atoms: _256  and  _257
REMARK  108  A    between atoms: _260  and  _262
REMARK  109  A    between atoms: _262  and  _263
REMARK  110  A    between atoms: _262  and  _265
REMARK  111  A    between atoms: _268  and  _270
REMARK  112  A    between atoms: _270  and  _271
REMARK  113  A    between atoms: _270  and  _273
REMARK  114  A    between atoms: _273  and  _274
REMARK  115  A    between atoms: _277  and  _279
REMARK  116  A    between atoms: _279  and  _280
REMARK  117  A    between atoms: _279  and  _282
REMARK  118  A    between atoms: _282  and  _283
REMARK  119  A    between atoms: _286  and  _288
REMARK  120  A    between atoms: _288  and  _289
REMARK  121  A    between atoms: _288  and  _291
REMARK  122  A    between atoms: _291  and  _292
REMARK  123  A    between atoms: _295  and  _297
REMARK  124  A    between atoms: _297  and  _298
REMARK  125  A    between atoms: _297  and  _300
REMARK  126  A    between atoms: _300  and  _301
REMARK  127  A    between atoms: _304  and  _306
REMARK  128  A    between atoms: _306  and  _307
REMARK  129  A    between atoms: _306  and  _309
REMARK  130  A    between atoms: _309  and  _310
REMARK  131  A    between atoms: _312  and  _314
REMARK  132  A    between atoms: _314  and  _315
REMARK  133  A    between atoms: _314  and  _317
REMARK  134  A    between atoms: _317  and  _318
REMARK  135  A    between atoms: _321  and  _323
REMARK  136  A    between atoms: _323  and  _324
REMARK  137  A    between atoms: _323  and  _326
REMARK  138  A    between atoms: _326  and  _327
REMARK  139  A    between atoms: _332  and  _333
REMARK  140  A    between atoms: _335  and  _337
REMARK  141  A    between atoms: _337  and  _338
REMARK  142  A    between atoms: _337  and  _340
REMARK  143  A    between atoms: _343  and  _345
REMARK  144  A    between atoms: _345  and  _346
REMARK  145  A    between atoms: _349  and  _351
REMARK  146  A    between atoms: _351  and  _352
REMARK  147  A    between atoms: _351  and  _354
REMARK  148  A    between atoms: _354  and  _355
REMARK  149  A    between atoms: _355  and  _356
REMARK  150  A    between atoms: _356  and  _357
REMARK  151  A    between atoms: _366  and  _368
REMARK  152  A    between atoms: _368  and  _369
REMARK  153  A    between atoms: _368  and  _371
REMARK  154  A    between atoms: _371  and  _372
REMARK  155  A    between atoms: _372  and  _373
REMARK  156  A    between atoms: _373  and  _374
REMARK  157  A    between atoms: _383  and  _385
REMARK  158  A    between atoms: _385  and  _386
REMARK  159  A    between atoms: _385  and  _388
REMARK  160  A    between atoms: _388  and  _389
REMARK  161  A    between atoms: _392  and  _394
REMARK  162  A    between atoms: _394  and  _395
REMARK  163  A    between atoms: _397  and  _399
REMARK  164  A    between atoms: _399  and  _400
REMARK  165  A    between atoms: _399  and  _402
REMARK  166  A    between atoms: _402  and  _403
REMARK  167  A    between atoms: _403  and  _404
REMARK  168  A    between atoms: _407  and  _409
REMARK  169  A    between atoms: _409  and  _410
REMARK  170  A    between atoms: _409  and  _412
REMARK  171  A    between atoms: _412  and  _413
REMARK  172  A    between atoms: _415  and  _417
REMARK  173  A    between atoms: _417  and  _418
REMARK  174  A    between atoms: _417  and  _420
REMARK  175  A    between atoms: _420  and  _421
REMARK  176  A    between atoms: _424  and  _426
REMARK  177  A    between atoms: _426  and  _427
REMARK  178  A    between atoms: _426  and  _429
REMARK  179  A    between atoms: _429  and  _430
REMARK  180  A    between atoms: _430  and  _431
REMARK  181  A    between atoms: _436  and  _438
REMARK  182  A    between atoms: _438  and  _439
REMARK  183  A    between atoms: _438  and  _441
REMARK  184  A    between atoms: _441  and  _442
REMARK  185  A    between atoms: _445  and  _447
REMARK  186  A    between atoms: _447  and  _448
REMARK  187  A    between atoms: _447  and  _450
REMARK  188  A    between atoms: _450  and  _451
REMARK  189  A    between atoms: _454  and  _456
REMARK  190  A    between atoms: _456  and  _457
REMARK  191  A    between atoms: _456  and  _459
REMARK  192  A    between atoms: _459  and  _460
REMARK  193  A    between atoms: _460  and  _461
REMARK  194  A    between atoms: _460  and  _462
REMARK  195  A    between atoms: _461  and  MG_705
REMARK  196  A    between atoms: _465  and  _467
REMARK  197  A    between atoms: _467  and  _468
REMARK  198  A    between atoms: _467  and  _470
REMARK  199  A    between atoms: _470  and  _471
REMARK  200  A    between atoms: _474  and  _476
REMARK  201  A    between atoms: _476  and  _477
REMARK  202  A    between atoms: _476  and  _479
REMARK  203  A    between atoms: _479  and  _480
REMARK  204  A    between atoms: _480  and  _481
REMARK  205  A    between atoms: _481  and  _482
REMARK  206  A    between atoms: _491  and  _493
REMARK  207  A    between atoms: _493  and  _494
REMARK  208  A    between atoms: _493  and  _496
REMARK  209  A    between atoms: _496  and  _497
REMARK  210  A    between atoms: _497  and  _499
REMARK  211  A    between atoms: _499  and  MG_705
REMARK  212  A    between atoms: _500  and  _502
REMARK  213  A    between atoms: _502  and  _503
REMARK  214  A    between atoms: _502  and  _505
REMARK  215  A    between atoms: _505  and  _506
REMARK  216  A    between atoms: _506  and  _507
REMARK  217  A    between atoms: _510  and  _512
REMARK  218  A    between atoms: _512  and  _513
REMARK  219  A    between atoms: _512  and  _515
REMARK  220  A    between atoms: _515  and  _516
REMARK  221  A    between atoms: _519  and  _521
REMARK  222  A    between atoms: _521  and  _522
REMARK  223  A    between atoms: _521  and  _524
REMARK  224  A    between atoms: _524  and  _525
REMARK  225  A    between atoms: _530  and  _532
REMARK  226  A    between atoms: _532  and  _533
REMARK  227  A    between atoms: _532  and  _535
REMARK  228  A    between atoms: _535  and  _536
REMARK  229  A    between atoms: _536  and  _537
REMARK  230  A    between atoms: _537  and  _538
REMARK  231  A    between atoms: _547  and  _549
REMARK  232  A    between atoms: _549  and  _550
REMARK  233  A    between atoms: _549  and  _552
REMARK  234  A    between atoms: _552  and  _553
REMARK  235  A    between atoms: _558  and  _559
REMARK  236  A    between atoms: _561  and  _563
REMARK  237  A    between atoms: _563  and  _564
REMARK  238  A    between atoms: _563  and  _566
REMARK  239  A    between atoms: _569  and  _571
REMARK  240  A    between atoms: _571  and  _572
REMARK  241  A    between atoms: _571  and  _574
REMARK  242  A    between atoms: _574  and  _575
REMARK  243  A    between atoms: _575  and  _576
REMARK  244  A    between atoms: _578  and  _580
REMARK  245  A    between atoms: _580  and  _581
REMARK  246  A    between atoms: _580  and  _583
REMARK  247  A    between atoms: _583  and  _584
REMARK  248  A    between atoms: _587  and  _589
REMARK  249  A    between atoms: _589  and  _590
REMARK  250  A    between atoms: _589  and  _592
REMARK  251  A    between atoms: _595  and  _597
REMARK  252  A    between atoms: _597  and  _598
REMARK  253  A    between atoms: _597  and  _600
REMARK  254  A    between atoms: _600  and  _601
REMARK  255  A    between atoms: _607  and  _609
REMARK  256  A    between atoms: _609  and  _610
REMARK  257  A    between atoms: _613  and  _615
REMARK  258  A    between atoms: _615  and  _616
REMARK  259  A    between atoms: _615  and  _618
REMARK  260  A    between atoms: _618  and  _619
REMARK  261  A    between atoms: _619  and  _620
REMARK  262  A    between atoms: _625  and  _627
REMARK  263  A    between atoms: _627  and  _628
REMARK  264  A    between atoms: _627  and  _630
REMARK  265  A    between atoms: _630  and  _631
REMARK  266  A    between atoms: _634  and  _636
REMARK  267  A    between atoms: _636  and  _637
REMARK  268  A    between atoms: _636  and  _639
REMARK  269  A    between atoms: _639  and  _640
REMARK  270  A    between atoms: _643  and  _645
REMARK  271  A    between atoms: _645  and  _646
REMARK  272  A    between atoms: _645  and  _648
REMARK  273  A    between atoms: _648  and  _649
REMARK  274  A    between atoms: _649  and  _650
REMARK  275  A    between atoms: _653  and  _655
REMARK  276  A    between atoms: _655  and  _656
REMARK  277  A    between atoms: _659  and  _661
REMARK  278  A    between atoms: _661  and  _662
REMARK  279  A    between atoms: _665  and  _667
REMARK  280  A    between atoms: _667  and  _668
REMARK  281  A    between atoms: _667  and  _670
REMARK  282  A    between atoms: _670  and  _671
REMARK  283  A    between atoms: _676  and  _677
REMARK  284  A    between atoms: _679  and  _681
REMARK  285  A    between atoms: _681  and  _682
REMARK  286  A    between atoms: _681  and  _684
REMARK  287  A    between atoms: _684  and  _685
REMARK  288  A    between atoms: _688  and  _690
REMARK  289  A    between atoms: _690  and  _691
REMARK  290  A    between atoms: _690  and  _693
REMARK  291  A    between atoms: _693  and  _694
REMARK  292  A    between atoms: _694  and  _695
REMARK  293  A    between atoms: _695  and  _696
REMARK                            x       y       z     vdW  Elec       q    Type
REMARK                         _______ _______ _______ _____ _____    ______ ____
ROOT
ATOM      1  O   HOH     1      30.541  46.074  37.216  0.00  0.00    +0.000 OA
ENDROOT
TORSDOF 0
REMARK  Name = ../refined-set-2016/2zcr/2zcr_pocket.pdb
REMARK  293 active torsions:
REMARK  status: ('A' for Active; 'I' for Inactive)
REMARK    1  A    between atoms: _1  and  _3
REMARK    2  A    between atoms: _3  and  _4
REMARK    3  A    between atoms: _3  and  _6
REMARK    4  A    between atoms: _6  and  _7
REMARK    5  A    between atoms: _7  and  _8
REMARK    6  A    between atoms: _10  and  _12
REMARK    7  A    between atoms: _12  and  _13
REMARK    8  A    between atoms: _12  and  _15
REMARK    9  A    between atoms: _15  and  _16
REMARK   10  A    between atoms: _21  and  _23
REMARK   11  A    between atoms: _23  and  _24
REMARK   12  A    between atoms: _23  and  _26
REMARK   13  A    between atoms: _26  and  _27
REMARK   14  A    between atoms: _29  and  _31
REMARK   15  A    between atoms: _31  and  _32
REMARK   16  A    between atoms: _31  and  _34
REMARK   17  A    between atoms: _34  and  _35
REMARK   18  A    between atoms: _35  and  _36
REMARK   19  A    between atoms: _36  and  _37
REMARK   20  A    between atoms: _37  and  _38
REMARK   21  A    between atoms: _42  and  _44
REMARK   22  A    between atoms: _44  and  _45
REMARK   23  A    between atoms: _44  and  _47
REMARK   24  A    between atoms: _47  and  _48
REMARK   25  A    between atoms: _50  and  _52
REMARK   26  A    between atoms: _52  and  _53
REMARK   27  A    between atoms: _52  and  _55
REMARK   28  A    between atoms: _55  and  _56
REMARK   29  A    between atoms: _62  and  _64
REMARK   30  A    between atoms: _64  and  _65
REMARK   31  A    between atoms: _68  and  _70
REMARK   32  A    between atoms: _70  and  _71
REMARK   33  A    between atoms: _70  and  _73
REMARK   34  A    between atoms: _73  and  _74
REMARK   35  A    between atoms: _80  and  _82
REMARK   36  A    between atoms: _82  and  _83
REMARK   37  A    between atoms: _82  and  _85
REMARK   38  A    between atoms: _85  and  _86
REMARK   39  A    between atoms: _89  and  _91
REMARK   40  A    between atoms: _91  and  _92
REMARK   41  A    between atoms: _91  and  _94
REMARK   42  A    between atoms: _97  and  _99
REMARK   43  A    between atoms: _99  and  _100
REMARK   44  A    between atoms: _99  and  _102
REMARK   45  A    between atoms: _102  and  _103
REMARK   46  A    between atoms: _106  and  _108
REMARK   47  A    between atoms: _108  and  _109
REMARK   48  A    between atoms: _108  and  _111
REMARK   49  A    between atoms: _111  and  _112
REMARK   50  A    between atoms: _117  and  _118
REMARK   51  A    between atoms: _120  and  _122
REMARK   52  A    between atoms: _122  and  _123
REMARK   53  A    between atoms: _122  and  _125
REMARK   54  A    between atoms: _127  and  _129
REMARK   55  A    between atoms: _129  and  _130
REMARK   56  A    between atoms: _129  and  _132
REMARK   57  A    between atoms: _132  and  _133
REMARK   58  A    between atoms: _133  and  _134
REMARK   59  A    between atoms: _134  and  _135
REMARK   60  A    between atoms: _144  and  _146
REMARK   61  A    between atoms: _146  and  _147
REMARK   62  A    between atoms: _146  and  _149
REMARK   63  A    between atoms: _149  and  _150
REMARK   64  A    between atoms: _153  and  _155
REMARK   65  A    between atoms: _155  and  _156
REMARK   66  A    between atoms: _155  and  _158
REMARK   67  A    between atoms: _158  and  _159
REMARK   68  A    between atoms: _162  and  _164
REMARK   69  A    between atoms: _164  and  _165
REMARK   70  A    between atoms: _164  and  _167
REMARK   71  A    between atoms: _167  and  _168
REMARK   72  A    between atoms: _171  and  _173
REMARK   73  A    between atoms: _173  and  _174
REMARK   74  A    between atoms: _173  and  _176
REMARK   75  A    between atoms: _179  and  _181
REMARK   76  A    between atoms: _181  and  _182
REMARK   77  A    between atoms: _181  and  _184
REMARK   78  A    between atoms: _184  and  _185
REMARK   79  A    between atoms: _188  and  _190
REMARK   80  A    between atoms: _190  and  _191
REMARK   81  A    between atoms: _190  and  _193
REMARK   82  A    between atoms: _193  and  _194
REMARK   83  A    between atoms: _199  and  _200
REMARK   84  A    between atoms: _202  and  _204
REMARK   85  A    between atoms: _204  and  _205
REMARK   86  A    between atoms: _204  and  _207
REMARK   87  A    between atoms: _209  and  _211
REMARK   88  A    between atoms: _211  and  _212
REMARK   89  A    between atoms: _211  and  _214
REMARK   90  A    between atoms: _217  and  _219
REMARK   91  A    between atoms: _219  and  _220
REMARK   92  A    between atoms: _223  and  _225
REMARK   93  A    between atoms: _225  and  _226
REMARK   94  A    between atoms: _228  and  _230
REMARK   95  A    between atoms: _230  and  _231
REMARK   96  A    between atoms: _230  and  _233
REMARK   97  A    between atoms: _233  and  _234
REMARK   98  A    between atoms: _237  and  _239
REMARK   99  A    between atoms: _239  and  _240
REMARK  100  A    between atoms: _239  and  _242
REMARK  101  A    between atoms: _245  and  _247
REMARK  102  A    between atoms: _247  and  _248
REMARK  103  A    between atoms: _250  and  _252
REMARK  104  A    between atoms: _252  and  _253
REMARK  105  A    between atoms: _252  and  _255
REMARK  106  A    between atoms: _255  and  _256
REMARK  107  A    between atoms: _256  and  _257
REMARK  108  A    between atoms: _260  and  _262
REMARK  109  A    between atoms: _262  and  _263
REMARK  110  A    between atoms: _262  and  _265
REMARK  111  A    between atoms: _268  and  _270
REMARK  112  A    between atoms: _270  and  _271
REMARK  113  A    between atoms: _270  and  _273
REMARK  114  A    between atoms: _273  and  _274
REMARK  115  A    between atoms: _277  and  _279
REMARK  116  A    between atoms: _279  and  _280
REMARK  117  A    between atoms: _279  and  _282
REMARK  118  A    between atoms: _282  and  _283
REMARK  119  A    between atoms: _286  and  _288
REMARK  120  A    between atoms: _288  and  _289
REMARK  121  A    between atoms: _288  and  _291
REMARK  122  A    between atoms: _291  and  _292
REMARK  123  A    between atoms: _295  and  _297
REMARK  124  A    between atoms: _297  and  _298
REMARK  125  A    between atoms: _297  and  _300
REMARK  126  A    between atoms: _300  and  _301
REMARK  127  A    between atoms: _304  and  _306
REMARK  128  A    between atoms: _306  and  _307
REMARK  129  A    between atoms: _306  and  _309
REMARK  130  A    between atoms: _309  and  _310
REMARK  131  A    between atoms: _312  and  _314
REMARK  132  A    between atoms: _314  and  _315
REMARK  133  A    between atoms: _314  and  _317
REMARK  134  A    between atoms: _317  and  _318
REMARK  135  A    between atoms: _321  and  _323
REMARK  136  A    between atoms: _323  and  _324
REMARK  137  A    between atoms: _323  and  _326
REMARK  138  A    between atoms: _326  and  _327
REMARK  139  A    between atoms: _332  and  _333
REMARK  140  A    between atoms: _335  and  _337
REMARK  141  A    between atoms: _337  and  _338
REMARK  142  A    between atoms: _337  and  _340
REMARK  143  A    between atoms: _343  and  _345
REMARK  144  A    between atoms: _345  and  _346
REMARK  145  A    between atoms: _349  and  _351
REMARK  146  A    between atoms: _351  and  _352
REMARK  147  A    between atoms: _351  and  _354
REMARK  148  A    between atoms: _354  and  _355
REMARK  149  A    between atoms: _355  and  _356
REMARK  150  A    between atoms: _356  and  _357
REMARK  151  A    between atoms: _366  and  _368
REMARK  152  A    between atoms: _368  and  _369
REMARK  153  A    between atoms: _368  and  _371
REMARK  154  A    between atoms: _371  and  _372
REMARK  155  A    between atoms: _372  and  _373
REMARK  156  A    between atoms: _373  and  _374
REMARK  157  A    between atoms: _383  and  _385
REMARK  158  A    between atoms: _385  and  _386
REMARK  159  A    between atoms: _385  and  _388
REMARK  160  A    between atoms: _388  and  _389
REMARK  161  A    between atoms: _392  and  _394
REMARK  162  A    between atoms: _394  and  _395
REMARK  163  A    between atoms: _397  and  _399
REMARK  164  A    between atoms: _399  and  _400
REMARK  165  A    between atoms: _399  and  _402
REMARK  166  A    between atoms: _402  and  _403
REMARK  167  A    between atoms: _403  and  _404
REMARK  168  A    between atoms: _407  and  _409
REMARK  169  A    between atoms: _409  and  _410
REMARK  170  A    between atoms: _409  and  _412
REMARK  171  A    between atoms: _412  and  _413
REMARK  172  A    between atoms: _415  and  _417
REMARK  173  A    between atoms: _417  and  _418
REMARK  174  A    between atoms: _417  and  _420
REMARK  175  A    between atoms: _420  and  _421
REMARK  176  A    between atoms: _424  and  _426
REMARK  177  A    between atoms: _426  and  _427
REMARK  178  A    between atoms: _426  and  _429
REMARK  179  A    between atoms: _429  and  _430
REMARK  180  A    between atoms: _430  and  _431
REMARK  181  A    between atoms: _436  and  _438
REMARK  182  A    between atoms: _438  and  _439
REMARK  183  A    between atoms: _438  and  _441
REMARK  184  A    between atoms: _441  and  _442
REMARK  185  A    between atoms: _445  and  _447
REMARK  186  A    between atoms: _447  and  _448
REMARK  187  A    between atoms: _447  and  _450
REMARK  188  A    between atoms: _450  and  _451
REMARK  189  A    between atoms: _454  and  _456
REMARK  190  A    between atoms: _456  and  _457
REMARK  191  A    between atoms: _456  and  _459
REMARK  192  A    between atoms: _459  and  _460
REMARK  193  A    between atoms: _460  and  _461
REMARK  194  A    between atoms: _460  and  _462
REMARK  195  A    between atoms: _461  and  MG_705
REMARK  196  A    between atoms: _465  and  _467
REMARK  197  A    between atoms: _467  and  _468
REMARK  198  A    between atoms: _467  and  _470
REMARK  199  A    between atoms: _470  and  _471
REMARK  200  A    between atoms: _474  and  _476
REMARK  201  A    between atoms: _476  and  _477
REMARK  202  A    between atoms: _476  and  _479
REMARK  203  A    between atoms: _479  and  _480
REMARK  204  A    between atoms: _480  and  _481
REMARK  205  A    between atoms: _481  and  _482
REMARK  206  A    between atoms: _491  and  _493
REMARK  207  A    between atoms: _493  and  _494
REMARK  208  A    between atoms: _493  and  _496
REMARK  209  A    between atoms: _496  and  _497
REMARK  210  A    between atoms: _497  and  _499
REMARK  211  A    between atoms: _499  and  MG_705
REMARK  212  A    between atoms: _500  and  _502
REMARK  213  A    between atoms: _502  and  _503
REMARK  214  A    between atoms: _502  and  _505
REMARK  215  A    between atoms: _505  and  _506
REMARK  216  A    between atoms: _506  and  _507
REMARK  217  A    between atoms: _510  and  _512
REMARK  218  A    between atoms: _512  and  _513
REMARK  219  A    between atoms: _512  and  _515
REMARK  220  A    between atoms: _515  and  _516
REMARK  221  A    between atoms: _519  and  _521
REMARK  222  A    between atoms: _521  and  _522
REMARK  223  A    between atoms: _521  and  _524
REMARK  224  A    between atoms: _524  and  _525
REMARK  225  A    between atoms: _530  and  _532
REMARK  226  A    between atoms: _532  and  _533
REMARK  227  A    between atoms: _532  and  _535
REMARK  228  A    between atoms: _535  and  _536
REMARK  229  A    between atoms: _536  and  _537
REMARK  230  A    between atoms: _537  and  _538
REMARK  231  A    between atoms: _547  and  _549
REMARK  232  A    between atoms: _549  and  _550
REMARK  233  A    between atoms: _549  and  _552
REMARK  234  A    between atoms: _552  and  _553
REMARK  235  A    between atoms: _558  and  _559
REMARK  236  A    between atoms: _561  and  _563
REMARK  237  A    between atoms: _563  and  _564
REMARK  238  A    between atoms: _563  and  _566
REMARK  239  A    between atoms: _569  and  _571
REMARK  240  A    between atoms: _571  and  _572
REMARK  241  A    between atoms: _571  and  _574
REMARK  242  A    between atoms: _574  and  _575
REMARK  243  A    between atoms: _575  and  _576
REMARK  244  A    between atoms: _578  and  _580
REMARK  245  A    between atoms: _580  and  _581
REMARK  246  A    between atoms: _580  and  _583
REMARK  247  A    between atoms: _583  and  _584
REMARK  248  A    between atoms: _587  and  _589
REMARK  249  A    between atoms: _589  and  _590
REMARK  250  A    between atoms: _589  and  _592
REMARK  251  A    between atoms: _595  and  _597
REMARK  252  A    between atoms: _597  and  _598
REMARK  253  A    between atoms: _597  and  _600
REMARK  254  A    between atoms: _600  and  _601
REMARK  255  A    between atoms: _607  and  _609
REMARK  256  A    between atoms: _609  and  _610
REMARK  257  A    between atoms: _613  and  _615
REMARK  258  A    between atoms: _615  and  _616
REMARK  259  A    between atoms: _615  and  _618
REMARK  260  A    between atoms: _618  and  _619
REMARK  261  A    between atoms: _619  and  _620
REMARK  262  A    between atoms: _625  and  _627
REMARK  263  A    between atoms: _627  and  _628
REMARK  264  A    between atoms: _627  and  _630
REMARK  265  A    between atoms: _630  and  _631
REMARK  266  A    between atoms: _634  and  _636
REMARK  267  A    between atoms: _636  and  _637
REMARK  268  A    between atoms: _636  and  _639
REMARK  269  A    between atoms: _639  and  _640
REMARK  270  A    between atoms: _643  and  _645
REMARK  271  A    between atoms: _645  and  _646
REMARK  272  A    between atoms: _645  and  _648
REMARK  273  A    between atoms: _648  and  _649
REMARK  274  A    between atoms: _649  and  _650
REMARK  275  A    between atoms: _653  and  _655
REMARK  276  A    between atoms: _655  and  _656
REMARK  277  A    between atoms: _659  and  _661
REMARK  278  A    between atoms: _661  and  _662
REMARK  279  A    between atoms: _665  and  _667
REMARK  280  A    between atoms: _667  and  _668
REMARK  281  A    between atoms: _667  and  _670
REMARK  282  A    between atoms: _670  and  _671
REMARK  283  A    between atoms: _676  and  _677
REMARK  284  A    between atoms: _679  and  _681
REMARK  285  A    between atoms: _681  and  _682
REMARK  286  A    between atoms: _681  and  _684
REMARK  287  A    between atoms: _684  and  _685
REMARK  288  A    between atoms: _688  and  _690
REMARK  289  A    between atoms: _690  and  _691
REMARK  290  A    between atoms: _690  and  _693
REMARK  291  A    between atoms: _693  and  _694
REMARK  292  A    between atoms: _694  and  _695
REMARK  293  A    between atoms: _695  and  _696
REMARK                            x       y       z     vdW  Elec       q    Type
REMARK                         _______ _______ _______ _____ _____    ______ ____
ROOT
ATOM      1  O   HOH     1      25.808  51.654  42.337  0.00  0.00    +0.000 OA
ENDROOT
TORSDOF 0
REMARK  Name = ../refined-set-2016/2zcr/2zcr_pocket.pdb
REMARK  293 active torsions:
REMARK  status: ('A' for Active; 'I' for Inactive)
REMARK    1  A    between atoms: _1  and  _3
REMARK    2  A    between atoms: _3  and  _4
REMARK    3  A    between atoms: _3  and  _6
REMARK    4  A    between atoms: _6  and  _7
REMARK    5  A    between atoms: _7  and  _8
REMARK    6  A    between atoms: _10  and  _12
REMARK    7  A    between atoms: _12  and  _13
REMARK    8  A    between atoms: _12  and  _15
REMARK    9  A    between atoms: _15  and  _16
REMARK   10  A    between atoms: _21  and  _23
REMARK   11  A    between atoms: _23  and  _24
REMARK   12  A    between atoms: _23  and  _26
REMARK   13  A    between atoms: _26  and  _27
REMARK   14  A    between atoms: _29  and  _31
REMARK   15  A    between atoms: _31  and  _32
REMARK   16  A    between atoms: _31  and  _34
REMARK   17  A    between atoms: _34  and  _35
REMARK   18  A    between atoms: _35  and  _36
REMARK   19  A    between atoms: _36  and  _37
REMARK   20  A    between atoms: _37  and  _38
REMARK   21  A    between atoms: _42  and  _44
REMARK   22  A    between atoms: _44  and  _45
REMARK   23  A    between atoms: _44  and  _47
REMARK   24  A    between atoms: _47  and  _48
REMARK   25  A    between atoms: _50  and  _52
REMARK   26  A    between atoms: _52  and  _53
REMARK   27  A    between atoms: _52  and  _55
REMARK   28  A    between atoms: _55  and  _56
REMARK   29  A    between atoms: _62  and  _64
REMARK   30  A    between atoms: _64  and  _65
REMARK   31  A    between atoms: _68  and  _70
REMARK   32  A    between atoms: _70  and  _71
REMARK   33  A    between atoms: _70  and  _73
REMARK   34  A    between atoms: _73  and  _74
REMARK   35  A    between atoms: _80  and  _82
REMARK   36  A    between atoms: _82  and  _83
REMARK   37  A    between atoms: _82  and  _85
REMARK   38  A    between atoms: _85  and  _86
REMARK   39  A    between atoms: _89  and  _91
REMARK   40  A    between atoms: _91  and  _92
REMARK   41  A    between atoms: _91  and  _94
REMARK   42  A    between atoms: _97  and  _99
REMARK   43  A    between atoms: _99  and  _100
REMARK   44  A    between atoms: _99  and  _102
REMARK   45  A    between atoms: _102  and  _103
REMARK   46  A    between atoms: _106  and  _108
REMARK   47  A    between atoms: _108  and  _109
REMARK   48  A    between atoms: _108  and  _111
REMARK   49  A    between atoms: _111  and  _112
REMARK   50  A    between atoms: _117  and  _118
REMARK   51  A    between atoms: _120  and  _122
REMARK   52  A    between atoms: _122  and  _123
REMARK   53  A    between atoms: _122  and  _125
REMARK   54  A    between atoms: _127  and  _129
REMARK   55  A    between atoms: _129  and  _130
REMARK   56  A    between atoms: _129  and  _132
REMARK   57  A    between atoms: _132  and  _133
REMARK   58  A    between atoms: _133  and  _134
REMARK   59  A    between atoms: _134  and  _135
REMARK   60  A    between atoms: _144  and  _146
REMARK   61  A    between atoms: _146  and  _147
REMARK   62  A    between atoms: _146  and  _149
REMARK   63  A    between atoms: _149  and  _150
REMARK   64  A    between atoms: _153  and  _155
REMARK   65  A    between atoms: _155  and  _156
REMARK   66  A    between atoms: _155  and  _158
REMARK   67  A    between atoms: _158  and  _159
REMARK   68  A    between atoms: _162  and  _164
REMARK   69  A    between atoms: _164  and  _165
REMARK   70  A    between atoms: _164  and  _167
REMARK   71  A    between atoms: _167  and  _168
REMARK   72  A    between atoms: _171  and  _173
REMARK   73  A    between atoms: _173  and  _174
REMARK   74  A    between atoms: _173  and  _176
REMARK   75  A    between atoms: _179  and  _181
REMARK   76  A    between atoms: _181  and  _182
REMARK   77  A    between atoms: _181  and  _184
REMARK   78  A    between atoms: _184  and  _185
REMARK   79  A    between atoms: _188  and  _190
REMARK   80  A    between atoms: _190  and  _191
REMARK   81  A    between atoms: _190  and  _193
REMARK   82  A    between atoms: _193  and  _194
REMARK   83  A    between atoms: _199  and  _200
REMARK   84  A    between atoms: _202  and  _204
REMARK   85  A    between atoms: _204  and  _205
REMARK   86  A    between atoms: _204  and  _207
REMARK   87  A    between atoms: _209  and  _211
REMARK   88  A    between atoms: _211  and  _212
REMARK   89  A    between atoms: _211  and  _214
REMARK   90  A    between atoms: _217  and  _219
REMARK   91  A    between atoms: _219  and  _220
REMARK   92  A    between atoms: _223  and  _225
REMARK   93  A    between atoms: _225  and  _226
REMARK   94  A    between atoms: _228  and  _230
REMARK   95  A    between atoms: _230  and  _231
REMARK   96  A    between atoms: _230  and  _233
REMARK   97  A    between atoms: _233  and  _234
REMARK   98  A    between atoms: _237  and  _239
REMARK   99  A    between atoms: _239  and  _240
REMARK  100  A    between atoms: _239  and  _242
REMARK  101  A    between atoms: _245  and  _247
REMARK  102  A    between atoms: _247  and  _248
REMARK  103  A    between atoms: _250  and  _252
REMARK  104  A    between atoms: _252  and  _253
REMARK  105  A    between atoms: _252  and  _255
REMARK  106  A    between atoms: _255  and  _256
REMARK  107  A    between atoms: _256  and  _257
REMARK  108  A    between atoms: _260  and  _262
REMARK  109  A    between atoms: _262  and  _263
REMARK  110  A    between atoms: _262  and  _265
REMARK  111  A    between atoms: _268  and  _270
REMARK  112  A    between atoms: _270  and  _271
REMARK  113  A    between atoms: _270  and  _273
REMARK  114  A    between atoms: _273  and  _274
REMARK  115  A    between atoms: _277  and  _279
REMARK  116  A    between atoms: _279  and  _280
REMARK  117  A    between atoms: _279  and  _282
REMARK  118  A    between atoms: _282  and  _283
REMARK  119  A    between atoms: _286  and  _288
REMARK  120  A    between atoms: _288  and  _289
REMARK  121  A    between atoms: _288  and  _291
REMARK  122  A    between atoms: _291  and  _292
REMARK  123  A    between atoms: _295  and  _297
REMARK  124  A    between atoms: _297  and  _298
REMARK  125  A    between atoms: _297  and  _300
REMARK  126  A    between atoms: _300  and  _301
REMARK  127  A    between atoms: _304  and  _306
REMARK  128  A    between atoms: _306  and  _307
REMARK  129  A    between atoms: _306  and  _309
REMARK  130  A    between atoms: _309  and  _310
REMARK  131  A    between atoms: _312  and  _314
REMARK  132  A    between atoms: _314  and  _315
REMARK  133  A    between atoms: _314  and  _317
REMARK  134  A    between atoms: _317  and  _318
REMARK  135  A    between atoms: _321  and  _323
REMARK  136  A    between atoms: _323  and  _324
REMARK  137  A    between atoms: _323  and  _326
REMARK  138  A    between atoms: _326  and  _327
REMARK  139  A    between atoms: _332  and  _333
REMARK  140  A    between atoms: _335  and  _337
REMARK  141  A    between atoms: _337  and  _338
REMARK  142  A    between atoms: _337  and  _340
REMARK  143  A    between atoms: _343  and  _345
REMARK  144  A    between atoms: _345  and  _346
REMARK  145  A    between atoms: _349  and  _351
REMARK  146  A    between atoms: _351  and  _352
REMARK  147  A    between atoms: _351  and  _354
REMARK  148  A    between atoms: _354  and  _355
REMARK  149  A    between atoms: _355  and  _356
REMARK  150  A    between atoms: _356  and  _357
REMARK  151  A    between atoms: _366  and  _368
REMARK  152  A    between atoms: _368  and  _369
REMARK  153  A    between atoms: _368  and  _371
REMARK  154  A    between atoms: _371  and  _372
REMARK  155  A    between atoms: _372  and  _373
REMARK  156  A    between atoms: _373  and  _374
REMARK  157  A    between atoms: _383  and  _385
REMARK  158  A    between atoms: _385  and  _386
REMARK  159  A    between atoms: _385  and  _388
REMARK  160  A    between atoms: _388  and  _389
REMARK  161  A    between atoms: _392  and  _394
REMARK  162  A    between atoms: _394  and  _395
REMARK  163  A    between atoms: _397  and  _399
REMARK  164  A    between atoms: _399  and  _400
REMARK  165  A    between atoms: _399  and  _402
REMARK  166  A    between atoms: _402  and  _403
REMARK  167  A    between atoms: _403  and  _404
REMARK  168  A    between atoms: _407  and  _409
REMARK  169  A    between atoms: _409  and  _410
REMARK  170  A    between atoms: _409  and  _412
REMARK  171  A    between atoms: _412  and  _413
REMARK  172  A    between atoms: _415  and  _417
REMARK  173  A    between atoms: _417  and  _418
REMARK  174  A    between atoms: _417  and  _420
REMARK  175  A    between atoms: _420  and  _421
REMARK  176  A    between atoms: _424  and  _426
REMARK  177  A    between atoms: _426  and  _427
REMARK  178  A    between atoms: _426  and  _429
REMARK  179  A    between atoms: _429  and  _430
REMARK  180  A    between atoms: _430  and  _431
REMARK  181  A    between atoms: _436  and  _438
REMARK  182  A    between atoms: _438  and  _439
REMARK  183  A    between atoms: _438  and  _441
REMARK  184  A    between atoms: _441  and  _442
REMARK  185  A    between atoms: _445  and  _447
REMARK  186  A    between atoms: _447  and  _448
REMARK  187  A    between atoms: _447  and  _450
REMARK  188  A    between atoms: _450  and  _451
REMARK  189  A    between atoms: _454  and  _456
REMARK  190  A    between atoms: _456  and  _457
REMARK  191  A    between atoms: _456  and  _459
REMARK  192  A    between atoms: _459  and  _460
REMARK  193  A    between atoms: _460  and  _461
REMARK  194  A    between atoms: _460  and  _462
REMARK  195  A    between atoms: _461  and  MG_705
REMARK  196  A    between atoms: _465  and  _467
REMARK  197  A    between atoms: _467  and  _468
REMARK  198  A    between atoms: _467  and  _470
REMARK  199  A    between atoms: _470  and  _471
REMARK  200  A    between atoms: _474  and  _476
REMARK  201  A    between atoms: _476  and  _477
REMARK  202  A    between atoms: _476  and  _479
REMARK  203  A    between atoms: _479  and  _480
REMARK  204  A    between atoms: _480  and  _481
REMARK  205  A    between atoms: _481  and  _482
REMARK  206  A    between atoms: _491  and  _493
REMARK  207  A    between atoms: _493  and  _494
REMARK  208  A    between atoms: _493  and  _496
REMARK  209  A    between atoms: _496  and  _497
REMARK  210  A    between atoms: _497  and  _499
REMARK  211  A    between atoms: _499  and  MG_705
REMARK  212  A    between atoms: _500  and  _502
REMARK  213  A    between atoms: _502  and  _503
REMARK  214  A    between atoms: _502  and  _505
REMARK  215  A    between atoms: _505  and  _506
REMARK  216  A    between atoms: _506  and  _507
REMARK  217  A    between atoms: _510  and  _512
REMARK  218  A    between atoms: _512  and  _513
REMARK  219  A    between atoms: _512  and  _515
REMARK  220  A    between atoms: _515  and  _516
REMARK  221  A    between atoms: _519  and  _521
REMARK  222  A    between atoms: _521  and  _522
REMARK  223  A    between atoms: _521  and  _524
REMARK  224  A    between atoms: _524  and  _525
REMARK  225  A    between atoms: _530  and  _532
REMARK  226  A    between atoms: _532  and  _533
REMARK  227  A    between atoms: _532  and  _535
REMARK  228  A    between atoms: _535  and  _536
REMARK  229  A    between atoms: _536  and  _537
REMARK  230  A    between atoms: _537  and  _538
REMARK  231  A    between atoms: _547  and  _549
REMARK  232  A    between atoms: _549  and  _550
REMARK  233  A    between atoms: _549  and  _552
REMARK  234  A    between atoms: _552  and  _553
REMARK  235  A    between atoms: _558  and  _559
REMARK  236  A    between atoms: _561  and  _563
REMARK  237  A    between atoms: _563  and  _564
REMARK  238  A    between atoms: _563  and  _566
REMARK  239  A    between atoms: _569  and  _571
REMARK  240  A    between atoms: _571  and  _572
REMARK  241  A    between atoms: _571  and  _574
REMARK  242  A    between atoms: _574  and  _575
REMARK  243  A    between atoms: _575  and  _576
REMARK  244  A    between atoms: _578  and  _580
REMARK  245  A    between atoms: _580  and  _581
REMARK  246  A    between atoms: _580  and  _583
REMARK  247  A    between atoms: _583  and  _584
REMARK  248  A    between atoms: _587  and  _589
REMARK  249  A    between atoms: _589  and  _590
REMARK  250  A    between atoms: _589  and  _592
REMARK  251  A    between atoms: _595  and  _597
REMARK  252  A    between atoms: _597  and  _598
REMARK  253  A    between atoms: _597  and  _600
REMARK  254  A    between atoms: _600  and  _601
REMARK  255  A    between atoms: _607  and  _609
REMARK  256  A    between atoms: _609  and  _610
REMARK  257  A    between atoms: _613  and  _615
REMARK  258  A    between atoms: _615  and  _616
REMARK  259  A    between atoms: _615  and  _618
REMARK  260  A    between atoms: _618  and  _619
REMARK  261  A    between atoms: _619  and  _620
REMARK  262  A    between atoms: _625  and  _627
REMARK  263  A    between atoms: _627  and  _628
REMARK  264  A    between atoms: _627  and  _630
REMARK  265  A    between atoms: _630  and  _631
REMARK  266  A    between atoms: _634  and  _636
REMARK  267  A    between atoms: _636  and  _637
REMARK  268  A    between atoms: _636  and  _639
REMARK  269  A    between atoms: _639  and  _640
REMARK  270  A    between atoms: _643  and  _645
REMARK  271  A    between atoms: _645  and  _646
REMARK  272  A    between atoms: _645  and  _648
REMARK  273  A    between atoms: _648  and  _649
REMARK  274  A    between atoms: _649  and  _650
REMARK  275  A    between atoms: _653  and  _655
REMARK  276  A    between atoms: _655  and  _656
REMARK  277  A    between atoms: _659  and  _661
REMARK  278  A    between atoms: _661  and  _662
REMARK  279  A    between atoms: _665  and  _667
REMARK  280  A    between atoms: _667  and  _668
REMARK  281  A    between atoms: _667  and  _670
REMARK  282  A    between atoms: _670  and  _671
REMARK  283  A    between atoms: _676  and  _677
REMARK  284  A    between atoms: _679  and  _681
REMARK  285  A    between atoms: _681  and  _682
REMARK  286  A    between atoms: _681  and  _684
REMARK  287  A    between atoms: _684  and  _685
REMARK  288  A    between atoms: _688  and  _690
REMARK  289  A    between atoms: _690  and  _691
REMARK  290  A    between atoms: _690  and  _693
REMARK  291  A    between atoms: _693  and  _694
REMARK  292  A    between atoms: _694  and  _695
REMARK  293  A    between atoms: _695  and  _696
REMARK                            x       y       z     vdW  Elec       q    Type
REMARK                         _______ _______ _______ _____ _____    ______ ____
ROOT
ATOM      1  O   HOH     1      23.155  47.251  37.527  0.00  0.00    +0.000 OA
ENDROOT
TORSDOF 0
REMARK  Name = ../refined-set-2016/2zcr/2zcr_pocket.pdb
REMARK  293 active torsions:
REMARK  status: ('A' for Active; 'I' for Inactive)
REMARK    1  A    between atoms: _1  and  _3
REMARK    2  A    between atoms: _3  and  _4
REMARK    3  A    between atoms: _3  and  _6
REMARK    4  A    between atoms: _6  and  _7
REMARK    5  A    between atoms: _7  and  _8
REMARK    6  A    between atoms: _10  and  _12
REMARK    7  A    between atoms: _12  and  _13
REMARK    8  A    between atoms: _12  and  _15
REMARK    9  A    between atoms: _15  and  _16
REMARK   10  A    between atoms: _21  and  _23
REMARK   11  A    between atoms: _23  and  _24
REMARK   12  A    between atoms: _23  and  _26
REMARK   13  A    between atoms: _26  and  _27
REMARK   14  A    between atoms: _29  and  _31
REMARK   15  A    between atoms: _31  and  _32
REMARK   16  A    between atoms: _31  and  _34
REMARK   17  A    between atoms: _34  and  _35
REMARK   18  A    between atoms: _35  and  _36
REMARK   19  A    between atoms: _36  and  _37
REMARK   20  A    between atoms: _37  and  _38
REMARK   21  A    between atoms: _42  and  _44
REMARK   22  A    between atoms: _44  and  _45
REMARK   23  A    between atoms: _44  and  _47
REMARK   24  A    between atoms: _47  and  _48
REMARK   25  A    between atoms: _50  and  _52
REMARK   26  A    between atoms: _52  and  _53
REMARK   27  A    between atoms: _52  and  _55
REMARK   28  A    between atoms: _55  and  _56
REMARK   29  A    between atoms: _62  and  _64
REMARK   30  A    between atoms: _64  and  _65
REMARK   31  A    between atoms: _68  and  _70
REMARK   32  A    between atoms: _70  and  _71
REMARK   33  A    between atoms: _70  and  _73
REMARK   34  A    between atoms: _73  and  _74
REMARK   35  A    between atoms: _80  and  _82
REMARK   36  A    between atoms: _82  and  _83
REMARK   37  A    between atoms: _82  and  _85
REMARK   38  A    between atoms: _85  and  _86
REMARK   39  A    between atoms: _89  and  _91
REMARK   40  A    between atoms: _91  and  _92
REMARK   41  A    between atoms: _91  and  _94
REMARK   42  A    between atoms: _97  and  _99
REMARK   43  A    between atoms: _99  and  _100
REMARK   44  A    between atoms: _99  and  _102
REMARK   45  A    between atoms: _102  and  _103
REMARK   46  A    between atoms: _106  and  _108
REMARK   47  A    between atoms: _108  and  _109
REMARK   48  A    between atoms: _108  and  _111
REMARK   49  A    between atoms: _111  and  _112
REMARK   50  A    between atoms: _117  and  _118
REMARK   51  A    between atoms: _120  and  _122
REMARK   52  A    between atoms: _122  and  _123
REMARK   53  A    between atoms: _122  and  _125
REMARK   54  A    between atoms: _127  and  _129
REMARK   55  A    between atoms: _129  and  _130
REMARK   56  A    between atoms: _129  and  _132
REMARK   57  A    between atoms: _132  and  _133
REMARK   58  A    between atoms: _133  and  _134
REMARK   59  A    between atoms: _134  and  _135
REMARK   60  A    between atoms: _144  and  _146
REMARK   61  A    between atoms: _146  and  _147
REMARK   62  A    between atoms: _146  and  _149
REMARK   63  A    between atoms: _149  and  _150
REMARK   64  A    between atoms: _153  and  _155
REMARK   65  A    between atoms: _155  and  _156
REMARK   66  A    between atoms: _155  and  _158
REMARK   67  A    between atoms: _158  and  _159
REMARK   68  A    between atoms: _162  and  _164
REMARK   69  A    between atoms: _164  and  _165
REMARK   70  A    between atoms: _164  and  _167
REMARK   71  A    between atoms: _167  and  _168
REMARK   72  A    between atoms: _171  and  _173
REMARK   73  A    between atoms: _173  and  _174
REMARK   74  A    between atoms: _173  and  _176
REMARK   75  A    between atoms: _179  and  _181
REMARK   76  A    between atoms: _181  and  _182
REMARK   77  A    between atoms: _181  and  _184
REMARK   78  A    between atoms: _184  and  _185
REMARK   79  A    between atoms: _188  and  _190
REMARK   80  A    between atoms: _190  and  _191
REMARK   81  A    between atoms: _190  and  _193
REMARK   82  A    between atoms: _193  and  _194
REMARK   83  A    between atoms: _199  and  _200
REMARK   84  A    between atoms: _202  and  _204
REMARK   85  A    between atoms: _204  and  _205
REMARK   86  A    between atoms: _204  and  _207
REMARK   87  A    between atoms: _209  and  _211
REMARK   88  A    between atoms: _211  and  _212
REMARK   89  A    between atoms: _211  and  _214
REMARK   90  A    between atoms: _217  and  _219
REMARK   91  A    between atoms: _219  and  _220
REMARK   92  A    between atoms: _223  and  _225
REMARK   93  A    between atoms: _225  and  _226
REMARK   94  A    between atoms: _228  and  _230
REMARK   95  A    between atoms: _230  and  _231
REMARK   96  A    between atoms: _230  and  _233
REMARK   97  A    between atoms: _233  and  _234
REMARK   98  A    between atoms: _237  and  _239
REMARK   99  A    between atoms: _239  and  _240
REMARK  100  A    between atoms: _239  and  _242
REMARK  101  A    between atoms: _245  and  _247
REMARK  102  A    between atoms: _247  and  _248
REMARK  103  A    between atoms: _250  and  _252
REMARK  104  A    between atoms: _252  and  _253
REMARK  105  A    between atoms: _252  and  _255
REMARK  106  A    between atoms: _255  and  _256
REMARK  107  A    between atoms: _256  and  _257
REMARK  108  A    between atoms: _260  and  _262
REMARK  109  A    between atoms: _262  and  _263
REMARK  110  A    between atoms: _262  and  _265
REMARK  111  A    between atoms: _268  and  _270
REMARK  112  A    between atoms: _270  and  _271
REMARK  113  A    between atoms: _270  and  _273
REMARK  114  A    between atoms: _273  and  _274
REMARK  115  A    between atoms: _277  and  _279
REMARK  116  A    between atoms: _279  and  _280
REMARK  117  A    between atoms: _279  and  _282
REMARK  118  A    between atoms: _282  and  _283
REMARK  119  A    between atoms: _286  and  _288
REMARK  120  A    between atoms: _288  and  _289
REMARK  121  A    between atoms: _288  and  _291
REMARK  122  A    between atoms: _291  and  _292
REMARK  123  A    between atoms: _295  and  _297
REMARK  124  A    between atoms: _297  and  _298
REMARK  125  A    between atoms: _297  and  _300
REMARK  126  A    between atoms: _300  and  _301
REMARK  127  A    between atoms: _304  and  _306
REMARK  128  A    between atoms: _306  and  _307
REMARK  129  A    between atoms: _306  and  _309
REMARK  130  A    between atoms: _309  and  _310
REMARK  131  A    between atoms: _312  and  _314
REMARK  132  A    between atoms: _314  and  _315
REMARK  133  A    between atoms: _314  and  _317
REMARK  134  A    between atoms: _317  and  _318
REMARK  135  A    between atoms: _321  and  _323
REMARK  136  A    between atoms: _323  and  _324
REMARK  137  A    between atoms: _323  and  _326
REMARK  138  A    between atoms: _326  and  _327
REMARK  139  A    between atoms: _332  and  _333
REMARK  140  A    between atoms: _335  and  _337
REMARK  141  A    between atoms: _337  and  _338
REMARK  142  A    between atoms: _337  and  _340
REMARK  143  A    between atoms: _343  and  _345
REMARK  144  A    between atoms: _345  and  _346
REMARK  145  A    between atoms: _349  and  _351
REMARK  146  A    between atoms: _351  and  _352
REMARK  147  A    between atoms: _351  and  _354
REMARK  148  A    between atoms: _354  and  _355
REMARK  149  A    between atoms: _355  and  _356
REMARK  150  A    between atoms: _356  and  _357
REMARK  151  A    between atoms: _366  and  _368
REMARK  152  A    between atoms: _368  and  _369
REMARK  153  A    between atoms: _368  and  _371
REMARK  154  A    between atoms: _371  and  _372
REMARK  155  A    between atoms: _372  and  _373
REMARK  156  A    between atoms: _373  and  _374
REMARK  157  A    between atoms: _383  and  _385
REMARK  158  A    between atoms: _385  and  _386
REMARK  159  A    between atoms: _385  and  _388
REMARK  160  A    between atoms: _388  and  _389
REMARK  161  A    between atoms: _392  and  _394
REMARK  162  A    between atoms: _394  and  _395
REMARK  163  A    between atoms: _397  and  _399
REMARK  164  A    between atoms: _399  and  _400
REMARK  165  A    between atoms: _399  and  _402
REMARK  166  A    between atoms: _402  and  _403
REMARK  167  A    between atoms: _403  and  _404
REMARK  168  A    between atoms: _407  and  _409
REMARK  169  A    between atoms: _409  and  _410
REMARK  170  A    between atoms: _409  and  _412
REMARK  171  A    between atoms: _412  and  _413
REMARK  172  A    between atoms: _415  and  _417
REMARK  173  A    between atoms: _417  and  _418
REMARK  174  A    between atoms: _417  and  _420
REMARK  175  A    between atoms: _420  and  _421
REMARK  176  A    between atoms: _424  and  _426
REMARK  177  A    between atoms: _426  and  _427
REMARK  178  A    between atoms: _426  and  _429
REMARK  179  A    between atoms: _429  and  _430
REMARK  180  A    between atoms: _430  and  _431
REMARK  181  A    between atoms: _436  and  _438
REMARK  182  A    between atoms: _438  and  _439
REMARK  183  A    between atoms: _438  and  _441
REMARK  184  A    between atoms: _441  and  _442
REMARK  185  A    between atoms: _445  and  _447
REMARK  186  A    between atoms: _447  and  _448
REMARK  187  A    between atoms: _447  and  _450
REMARK  188  A    between atoms: _450  and  _451
REMARK  189  A    between atoms: _454  and  _456
REMARK  190  A    between atoms: _456  and  _457
REMARK  191  A    between atoms: _456  and  _459
REMARK  192  A    between atoms: _459  and  _460
REMARK  193  A    between atoms: _460  and  _461
REMARK  194  A    between atoms: _460  and  _462
REMARK  195  A    between atoms: _461  and  MG_705
REMARK  196  A    between atoms: _465  and  _467
REMARK  197  A    between atoms: _467  and  _468
REMARK  198  A    between atoms: _467  and  _470
REMARK  199  A    between atoms: _470  and  _471
REMARK  200  A    between atoms: _474  and  _476
REMARK  201  A    between atoms: _476  and  _477
REMARK  202  A    between atoms: _476  and  _479
REMARK  203  A    between atoms: _479  and  _480
REMARK  204  A    between atoms: _480  and  _481
REMARK  205  A    between atoms: _481  and  _482
REMARK  206  A    between atoms: _491  and  _493
REMARK  207  A    between atoms: _493  and  _494
REMARK  208  A    between atoms: _493  and  _496
REMARK  209  A    between atoms: _496  and  _497
REMARK  210  A    between atoms: _497  and  _499
REMARK  211  A    between atoms: _499  and  MG_705
REMARK  212  A    between atoms: _500  and  _502
REMARK  213  A    between atoms: _502  and  _503
REMARK  214  A    between atoms: _502  and  _505
REMARK  215  A    between atoms: _505  and  _506
REMARK  216  A    between atoms: _506  and  _507
REMARK  217  A    between atoms: _510  and  _512
REMARK  218  A    between atoms: _512  and  _513
REMARK  219  A    between atoms: _512  and  _515
REMARK  220  A    between atoms: _515  and  _516
REMARK  221  A    between atoms: _519  and  _521
REMARK  222  A    between atoms: _521  and  _522
REMARK  223  A    between atoms: _521  and  _524
REMARK  224  A    between atoms: _524  and  _525
REMARK  225  A    between atoms: _530  and  _532
REMARK  226  A    between atoms: _532  and  _533
REMARK  227  A    between atoms: _532  and  _535
REMARK  228  A    between atoms: _535  and  _536
REMARK  229  A    between atoms: _536  and  _537
REMARK  230  A    between atoms: _537  and  _538
REMARK  231  A    between atoms: _547  and  _549
REMARK  232  A    between atoms: _549  and  _550
REMARK  233  A    between atoms: _549  and  _552
REMARK  234  A    between atoms: _552  and  _553
REMARK  235  A    between atoms: _558  and  _559
REMARK  236  A    between atoms: _561  and  _563
REMARK  237  A    between atoms: _563  and  _564
REMARK  238  A    between atoms: _563  and  _566
REMARK  239  A    between atoms: _569  and  _571
REMARK  240  A    between atoms: _571  and  _572
REMARK  241  A    between atoms: _571  and  _574
REMARK  242  A    between atoms: _574  and  _575
REMARK  243  A    between atoms: _575  and  _576
REMARK  244  A    between atoms: _578  and  _580
REMARK  245  A    between atoms: _580  and  _581
REMARK  246  A    between atoms: _580  and  _583
REMARK  247  A    between atoms: _583  and  _584
REMARK  248  A    between atoms: _587  and  _589
REMARK  249  A    between atoms: _589  and  _590
REMARK  250  A    between atoms: _589  and  _592
REMARK  251  A    between atoms: _595  and  _597
REMARK  252  A    between atoms: _597  and  _598
REMARK  253  A    between atoms: _597  and  _600
REMARK  254  A    between atoms: _600  and  _601
REMARK  255  A    between atoms: _607  and  _609
REMARK  256  A    between atoms: _609  and  _610
REMARK  257  A    between atoms: _613  and  _615
REMARK  258  A    between atoms: _615  and  _616
REMARK  259  A    between atoms: _615  and  _618
REMARK  260  A    between atoms: _618  and  _619
REMARK  261  A    between atoms: _619  and  _620
REMARK  262  A    between atoms: _625  and  _627
REMARK  263  A    between atoms: _627  and  _628
REMARK  264  A    between atoms: _627  and  _630
REMARK  265  A    between atoms: _630  and  _631
REMARK  266  A    between atoms: _634  and  _636
REMARK  267  A    between atoms: _636  and  _637
REMARK  268  A    between atoms: _636  and  _639
REMARK  269  A    between atoms: _639  and  _640
REMARK  270  A    between atoms: _643  and  _645
REMARK  271  A    between atoms: _645  and  _646
REMARK  272  A    between atoms: _645  and  _648
REMARK  273  A    between atoms: _648  and  _649
REMARK  274  A    between atoms: _649  and  _650
REMARK  275  A    between atoms: _653  and  _655
REMARK  276  A    between atoms: _655  and  _656
REMARK  277  A    between atoms: _659  and  _661
REMARK  278  A    between atoms: _661  and  _662
REMARK  279  A    between atoms: _665  and  _667
REMARK  280  A    between atoms: _667  and  _668
REMARK  281  A    between atoms: _667  and  _670
REMARK  282  A    between atoms: _670  and  _671
REMARK  283  A    between atoms: _676  and  _677
REMARK  284  A    between atoms: _679  and  _681
REMARK  285  A    between atoms: _681  and  _682
REMARK  286  A    between atoms: _681  and  _684
REMARK  287  A    between atoms: _684  and  _685
REMARK  288  A    between atoms: _688  and  _690
REMARK  289  A    between atoms: _690  and  _691
REMARK  290  A    between atoms: _690  and  _693
REMARK  291  A    between atoms: _693  and  _694
REMARK  292  A    between atoms: _694  and  _695
REMARK  293  A    between atoms: _695  and  _696
REMARK                            x       y       z     vdW  Elec       q    Type
REMARK                         _______ _______ _______ _____ _____    ______ ____
ROOT
ATOM      1  O   HOH     1      16.701  50.418  38.477  0.00  0.00    +0.000 OA
ENDROOT
TORSDOF 0
REMARK  Name = ../refined-set-2016/2zcr/2zcr_pocket.pdb
REMARK  293 active torsions:
REMARK  status: ('A' for Active; 'I' for Inactive)
REMARK    1  A    between atoms: _1  and  _3
REMARK    2  A    between atoms: _3  and  _4
REMARK    3  A    between atoms: _3  and  _6
REMARK    4  A    between atoms: _6  and  _7
REMARK    5  A    between atoms: _7  and  _8
REMARK    6  A    between atoms: _10  and  _12
REMARK    7  A    between atoms: _12  and  _13
REMARK    8  A    between atoms: _12  and  _15
REMARK    9  A    between atoms: _15  and  _16
REMARK   10  A    between atoms: _21  and  _23
REMARK   11  A    between atoms: _23  and  _24
REMARK   12  A    between atoms: _23  and  _26
REMARK   13  A    between atoms: _26  and  _27
REMARK   14  A    between atoms: _29  and  _31
REMARK   15  A    between atoms: _31  and  _32
REMARK   16  A    between atoms: _31  and  _34
REMARK   17  A    between atoms: _34  and  _35
REMARK   18  A    between atoms: _35  and  _36
REMARK   19  A    between atoms: _36  and  _37
REMARK   20  A    between atoms: _37  and  _38
REMARK   21  A    between atoms: _42  and  _44
REMARK   22  A    between atoms: _44  and  _45
REMARK   23  A    between atoms: _44  and  _47
REMARK   24  A    between atoms: _47  and  _48
REMARK   25  A    between atoms: _50  and  _52
REMARK   26  A    between atoms: _52  and  _53
REMARK   27  A    between atoms: _52  and  _55
REMARK   28  A    between atoms: _55  and  _56
REMARK   29  A    between atoms: _62  and  _64
REMARK   30  A    between atoms: _64  and  _65
REMARK   31  A    between atoms: _68  and  _70
REMARK   32  A    between atoms: _70  and  _71
REMARK   33  A    between atoms: _70  and  _73
REMARK   34  A    between atoms: _73  and  _74
REMARK   35  A    between atoms: _80  and  _82
REMARK   36  A    between atoms: _82  and  _83
REMARK   37  A    between atoms: _82  and  _85
REMARK   38  A    between atoms: _85  and  _86
REMARK   39  A    between atoms: _89  and  _91
REMARK   40  A    between atoms: _91  and  _92
REMARK   41  A    between atoms: _91  and  _94
REMARK   42  A    between atoms: _97  and  _99
REMARK   43  A    between atoms: _99  and  _100
REMARK   44  A    between atoms: _99  and  _102
REMARK   45  A    between atoms: _102  and  _103
REMARK   46  A    between atoms: _106  and  _108
REMARK   47  A    between atoms: _108  and  _109
REMARK   48  A    between atoms: _108  and  _111
REMARK   49  A    between atoms: _111  and  _112
REMARK   50  A    between atoms: _117  and  _118
REMARK   51  A    between atoms: _120  and  _122
REMARK   52  A    between atoms: _122  and  _123
REMARK   53  A    between atoms: _122  and  _125
REMARK   54  A    between atoms: _127  and  _129
REMARK   55  A    between atoms: _129  and  _130
REMARK   56  A    between atoms: _129  and  _132
REMARK   57  A    between atoms: _132  and  _133
REMARK   58  A    between atoms: _133  and  _134
REMARK   59  A    between atoms: _134  and  _135
REMARK   60  A    between atoms: _144  and  _146
REMARK   61  A    between atoms: _146  and  _147
REMARK   62  A    between atoms: _146  and  _149
REMARK   63  A    between atoms: _149  and  _150
REMARK   64  A    between atoms: _153  and  _155
REMARK   65  A    between atoms: _155  and  _156
REMARK   66  A    between atoms: _155  and  _158
REMARK   67  A    between atoms: _158  and  _159
REMARK   68  A    between atoms: _162  and  _164
REMARK   69  A    between atoms: _164  and  _165
REMARK   70  A    between atoms: _164  and  _167
REMARK   71  A    between atoms: _167  and  _168
REMARK   72  A    between atoms: _171  and  _173
REMARK   73  A    between atoms: _173  and  _174
REMARK   74  A    between atoms: _173  and  _176
REMARK   75  A    between atoms: _179  and  _181
REMARK   76  A    between atoms: _181  and  _182
REMARK   77  A    between atoms: _181  and  _184
REMARK   78  A    between atoms: _184  and  _185
REMARK   79  A    between atoms: _188  and  _190
REMARK   80  A    between atoms: _190  and  _191
REMARK   81  A    between atoms: _190  and  _193
REMARK   82  A    between atoms: _193  and  _194
REMARK   83  A    between atoms: _199  and  _200
REMARK   84  A    between atoms: _202  and  _204
REMARK   85  A    between atoms: _204  and  _205
REMARK   86  A    between atoms: _204  and  _207
REMARK   87  A    between atoms: _209  and  _211
REMARK   88  A    between atoms: _211  and  _212
REMARK   89  A    between atoms: _211  and  _214
REMARK   90  A    between atoms: _217  and  _219
REMARK   91  A    between atoms: _219  and  _220
REMARK   92  A    between atoms: _223  and  _225
REMARK   93  A    between atoms: _225  and  _226
REMARK   94  A    between atoms: _228  and  _230
REMARK   95  A    between atoms: _230  and  _231
REMARK   96  A    between atoms: _230  and  _233
REMARK   97  A    between atoms: _233  and  _234
REMARK   98  A    between atoms: _237  and  _239
REMARK   99  A    between atoms: _239  and  _240
REMARK  100  A    between atoms: _239  and  _242
REMARK  101  A    between atoms: _245  and  _247
REMARK  102  A    between atoms: _247  and  _248
REMARK  103  A    between atoms: _250  and  _252
REMARK  104  A    between atoms: _252  and  _253
REMARK  105  A    between atoms: _252  and  _255
REMARK  106  A    between atoms: _255  and  _256
REMARK  107  A    between atoms: _256  and  _257
REMARK  108  A    between atoms: _260  and  _262
REMARK  109  A    between atoms: _262  and  _263
REMARK  110  A    between atoms: _262  and  _265
REMARK  111  A    between atoms: _268  and  _270
REMARK  112  A    between atoms: _270  and  _271
REMARK  113  A    between atoms: _270  and  _273
REMARK  114  A    between atoms: _273  and  _274
REMARK  115  A    between atoms: _277  and  _279
REMARK  116  A    between atoms: _279  and  _280
REMARK  117  A    between atoms: _279  and  _282
REMARK  118  A    between atoms: _282  and  _283
REMARK  119  A    between atoms: _286  and  _288
REMARK  120  A    between atoms: _288  and  _289
REMARK  121  A    between atoms: _288  and  _291
REMARK  122  A    between atoms: _291  and  _292
REMARK  123  A    between atoms: _295  and  _297
REMARK  124  A    between atoms: _297  and  _298
REMARK  125  A    between atoms: _297  and  _300
REMARK  126  A    between atoms: _300  and  _301
REMARK  127  A    between atoms: _304  and  _306
REMARK  128  A    between atoms: _306  and  _307
REMARK  129  A    between atoms: _306  and  _309
REMARK  130  A    between atoms: _309  and  _310
REMARK  131  A    between atoms: _312  and  _314
REMARK  132  A    between atoms: _314  and  _315
REMARK  133  A    between atoms: _314  and  _317
REMARK  134  A    between atoms: _317  and  _318
REMARK  135  A    between atoms: _321  and  _323
REMARK  136  A    between atoms: _323  and  _324
REMARK  137  A    between atoms: _323  and  _326
REMARK  138  A    between atoms: _326  and  _327
REMARK  139  A    between atoms: _332  and  _333
REMARK  140  A    between atoms: _335  and  _337
REMARK  141  A    between atoms: _337  and  _338
REMARK  142  A    between atoms: _337  and  _340
REMARK  143  A    between atoms: _343  and  _345
REMARK  144  A    between atoms: _345  and  _346
REMARK  145  A    between atoms: _349  and  _351
REMARK  146  A    between atoms: _351  and  _352
REMARK  147  A    between atoms: _351  and  _354
REMARK  148  A    between atoms: _354  and  _355
REMARK  149  A    between atoms: _355  and  _356
REMARK  150  A    between atoms: _356  and  _357
REMARK  151  A    between atoms: _366  and  _368
REMARK  152  A    between atoms: _368  and  _369
REMARK  153  A    between atoms: _368  and  _371
REMARK  154  A    between atoms: _371  and  _372
REMARK  155  A    between atoms: _372  and  _373
REMARK  156  A    between atoms: _373  and  _374
REMARK  157  A    between atoms: _383  and  _385
REMARK  158  A    between atoms: _385  and  _386
REMARK  159  A    between atoms: _385  and  _388
REMARK  160  A    between atoms: _388  and  _389
REMARK  161  A    between atoms: _392  and  _394
REMARK  162  A    between atoms: _394  and  _395
REMARK  163  A    between atoms: _397  and  _399
REMARK  164  A    between atoms: _399  and  _400
REMARK  165  A    between atoms: _399  and  _402
REMARK  166  A    between atoms: _402  and  _403
REMARK  167  A    between atoms: _403  and  _404
REMARK  168  A    between atoms: _407  and  _409
REMARK  169  A    between atoms: _409  and  _410
REMARK  170  A    between atoms: _409  and  _412
REMARK  171  A    between atoms: _412  and  _413
REMARK  172  A    between atoms: _415  and  _417
REMARK  173  A    between atoms: _417  and  _418
REMARK  174  A    between atoms: _417  and  _420
REMARK  175  A    between atoms: _420  and  _421
REMARK  176  A    between atoms: _424  and  _426
REMARK  177  A    between atoms: _426  and  _427
REMARK  178  A    between atoms: _426  and  _429
REMARK  179  A    between atoms: _429  and  _430
REMARK  180  A    between atoms: _430  and  _431
REMARK  181  A    between atoms: _436  and  _438
REMARK  182  A    between atoms: _438  and  _439
REMARK  183  A    between atoms: _438  and  _441
REMARK  184  A    between atoms: _441  and  _442
REMARK  185  A    between atoms: _445  and  _447
REMARK  186  A    between atoms: _447  and  _448
REMARK  187  A    between atoms: _447  and  _450
REMARK  188  A    between atoms: _450  and  _451
REMARK  189  A    between atoms: _454  and  _456
REMARK  190  A    between atoms: _456  and  _457
REMARK  191  A    between atoms: _456  and  _459
REMARK  192  A    between atoms: _459  and  _460
REMARK  193  A    between atoms: _460  and  _461
REMARK  194  A    between atoms: _460  and  _462
REMARK  195  A    between atoms: _461  and  MG_705
REMARK  196  A    between atoms: _465  and  _467
REMARK  197  A    between atoms: _467  and  _468
REMARK  198  A    between atoms: _467  and  _470
REMARK  199  A    between atoms: _470  and  _471
REMARK  200  A    between atoms: _474  and  _476
REMARK  201  A    between atoms: _476  and  _477
REMARK  202  A    between atoms: _476  and  _479
REMARK  203  A    between atoms: _479  and  _480
REMARK  204  A    between atoms: _480  and  _481
REMARK  205  A    between atoms: _481  and  _482
REMARK  206  A    between atoms: _491  and  _493
REMARK  207  A    between atoms: _493  and  _494
REMARK  208  A    between atoms: _493  and  _496
REMARK  209  A    between atoms: _496  and  _497
REMARK  210  A    between atoms: _497  and  _499
REMARK  211  A    between atoms: _499  and  MG_705
REMARK  212  A    between atoms: _500  and  _502
REMARK  213  A    between atoms: _502  and  _503
REMARK  214  A    between atoms: _502  and  _505
REMARK  215  A    between atoms: _505  and  _506
REMARK  216  A    between atoms: _506  and  _507
REMARK  217  A    between atoms: _510  and  _512
REMARK  218  A    between atoms: _512  and  _513
REMARK  219  A    between atoms: _512  and  _515
REMARK  220  A    between atoms: _515  and  _516
REMARK  221  A    between atoms: _519  and  _521
REMARK  222  A    between atoms: _521  and  _522
REMARK  223  A    between atoms: _521  and  _524
REMARK  224  A    between atoms: _524  and  _525
REMARK  225  A    between atoms: _530  and  _532
REMARK  226  A    between atoms: _532  and  _533
REMARK  227  A    between atoms: _532  and  _535
REMARK  228  A    between atoms: _535  and  _536
REMARK  229  A    between atoms: _536  and  _537
REMARK  230  A    between atoms: _537  and  _538
REMARK  231  A    between atoms: _547  and  _549
REMARK  232  A    between atoms: _549  and  _550
REMARK  233  A    between atoms: _549  and  _552
REMARK  234  A    between atoms: _552  and  _553
REMARK  235  A    between atoms: _558  and  _559
REMARK  236  A    between atoms: _561  and  _563
REMARK  237  A    between atoms: _563  and  _564
REMARK  238  A    between atoms: _563  and  _566
REMARK  239  A    between atoms: _569  and  _571
REMARK  240  A    between atoms: _571  and  _572
REMARK  241  A    between atoms: _571  and  _574
REMARK  242  A    between atoms: _574  and  _575
REMARK  243  A    between atoms: _575  and  _576
REMARK  244  A    between atoms: _578  and  _580
REMARK  245  A    between atoms: _580  and  _581
REMARK  246  A    between atoms: _580  and  _583
REMARK  247  A    between atoms: _583  and  _584
REMARK  248  A    between atoms: _587  and  _589
REMARK  249  A    between atoms: _589  and  _590
REMARK  250  A    between atoms: _589  and  _592
REMARK  251  A    between atoms: _595  and  _597
REMARK  252  A    between atoms: _597  and  _598
REMARK  253  A    between atoms: _597  and  _600
REMARK  254  A    between atoms: _600  and  _601
REMARK  255  A    between atoms: _607  and  _609
REMARK  256  A    between atoms: _609  and  _610
REMARK  257  A    between atoms: _613  and  _615
REMARK  258  A    between atoms: _615  and  _616
REMARK  259  A    between atoms: _615  and  _618
REMARK  260  A    between atoms: _618  and  _619
REMARK  261  A    between atoms: _619  and  _620
REMARK  262  A    between atoms: _625  and  _627
REMARK  263  A    between atoms: _627  and  _628
REMARK  264  A    between atoms: _627  and  _630
REMARK  265  A    between atoms: _630  and  _631
REMARK  266  A    between atoms: _634  and  _636
REMARK  267  A    between atoms: _636  and  _637
REMARK  268  A    between atoms: _636  and  _639
REMARK  269  A    between atoms: _639  and  _640
REMARK  270  A    between atoms: _643  and  _645
REMARK  271  A    between atoms: _645  and  _646
REMARK  272  A    between atoms: _645  and  _648
REMARK  273  A    between atoms: _648  and  _649
REMARK  274  A    between atoms: _649  and  _650
REMARK  275  A    between atoms: _653  and  _655
REMARK  276  A    between atoms: _655  and  _656
REMARK  277  A    between atoms: _659  and  _661
REMARK  278  A    between atoms: _661  and  _662
REMARK  279  A    between atoms: _665  and  _667
REMARK  280  A    between atoms: _667  and  _668
REMARK  281  A    between atoms: _667  and  _670
REMARK  282  A    between atoms: _670  and  _671
REMARK  283  A    between atoms: _676  and  _677
REMARK  284  A    between atoms: _679  and  _681
REMARK  285  A    between atoms: _681  and  _682
REMARK  286  A    between atoms: _681  and  _684
REMARK  287  A    between atoms: _684  and  _685
REMARK  288  A    between atoms: _688  and  _690
REMARK  289  A    between atoms: _690  and  _691
REMARK  290  A    between atoms: _690  and  _693
REMARK  291  A    between atoms: _693  and  _694
REMARK  292  A    between atoms: _694  and  _695
REMARK  293  A    between atoms: _695  and  _696
REMARK                            x       y       z     vdW  Elec       q    Type
REMARK                         _______ _______ _______ _____ _____    ______ ____
ROOT
ATOM      1  O   HOH     1      25.435  52.079  32.139  0.00  0.00    +0.000 OA
ENDROOT
TORSDOF 0
REMARK  Name = ../refined-set-2016/2zcr/2zcr_pocket.pdb
REMARK  293 active torsions:
REMARK  status: ('A' for Active; 'I' for Inactive)
REMARK    1  A    between atoms: _1  and  _3
REMARK    2  A    between atoms: _3  and  _4
REMARK    3  A    between atoms: _3  and  _6
REMARK    4  A    between atoms: _6  and  _7
REMARK    5  A    between atoms: _7  and  _8
REMARK    6  A    between atoms: _10  and  _12
REMARK    7  A    between atoms: _12  and  _13
REMARK    8  A    between atoms: _12  and  _15
REMARK    9  A    between atoms: _15  and  _16
REMARK   10  A    between atoms: _21  and  _23
REMARK   11  A    between atoms: _23  and  _24
REMARK   12  A    between atoms: _23  and  _26
REMARK   13  A    between atoms: _26  and  _27
REMARK   14  A    between atoms: _29  and  _31
REMARK   15  A    between atoms: _31  and  _32
REMARK   16  A    between atoms: _31  and  _34
REMARK   17  A    between atoms: _34  and  _35
REMARK   18  A    between atoms: _35  and  _36
REMARK   19  A    between atoms: _36  and  _37
REMARK   20  A    between atoms: _37  and  _38
REMARK   21  A    between atoms: _42  and  _44
REMARK   22  A    between atoms: _44  and  _45
REMARK   23  A    between atoms: _44  and  _47
REMARK   24  A    between atoms: _47  and  _48
REMARK   25  A    between atoms: _50  and  _52
REMARK   26  A    between atoms: _52  and  _53
REMARK   27  A    between atoms: _52  and  _55
REMARK   28  A    between atoms: _55  and  _56
REMARK   29  A    between atoms: _62  and  _64
REMARK   30  A    between atoms: _64  and  _65
REMARK   31  A    between atoms: _68  and  _70
REMARK   32  A    between atoms: _70  and  _71
REMARK   33  A    between atoms: _70  and  _73
REMARK   34  A    between atoms: _73  and  _74
REMARK   35  A    between atoms: _80  and  _82
REMARK   36  A    between atoms: _82  and  _83
REMARK   37  A    between atoms: _82  and  _85
REMARK   38  A    between atoms: _85  and  _86
REMARK   39  A    between atoms: _89  and  _91
REMARK   40  A    between atoms: _91  and  _92
REMARK   41  A    between atoms: _91  and  _94
REMARK   42  A    between atoms: _97  and  _99
REMARK   43  A    between atoms: _99  and  _100
REMARK   44  A    between atoms: _99  and  _102
REMARK   45  A    between atoms: _102  and  _103
REMARK   46  A    between atoms: _106  and  _108
REMARK   47  A    between atoms: _108  and  _109
REMARK   48  A    between atoms: _108  and  _111
REMARK   49  A    between atoms: _111  and  _112
REMARK   50  A    between atoms: _117  and  _118
REMARK   51  A    between atoms: _120  and  _122
REMARK   52  A    between atoms: _122  and  _123
REMARK   53  A    between atoms: _122  and  _125
REMARK   54  A    between atoms: _127  and  _129
REMARK   55  A    between atoms: _129  and  _130
REMARK   56  A    between atoms: _129  and  _132
REMARK   57  A    between atoms: _132  and  _133
REMARK   58  A    between atoms: _133  and  _134
REMARK   59  A    between atoms: _134  and  _135
REMARK   60  A    between atoms: _144  and  _146
REMARK   61  A    between atoms: _146  and  _147
REMARK   62  A    between atoms: _146  and  _149
REMARK   63  A    between atoms: _149  and  _150
REMARK   64  A    between atoms: _153  and  _155
REMARK   65  A    between atoms: _155  and  _156
REMARK   66  A    between atoms: _155  and  _158
REMARK   67  A    between atoms: _158  and  _159
REMARK   68  A    between atoms: _162  and  _164
REMARK   69  A    between atoms: _164  and  _165
REMARK   70  A    between atoms: _164  and  _167
REMARK   71  A    between atoms: _167  and  _168
REMARK   72  A    between atoms: _171  and  _173
REMARK   73  A    between atoms: _173  and  _174
REMARK   74  A    between atoms: _173  and  _176
REMARK   75  A    between atoms: _179  and  _181
REMARK   76  A    between atoms: _181  and  _182
REMARK   77  A    between atoms: _181  and  _184
REMARK   78  A    between atoms: _184  and  _185
REMARK   79  A    between atoms: _188  and  _190
REMARK   80  A    between atoms: _190  and  _191
REMARK   81  A    between atoms: _190  and  _193
REMARK   82  A    between atoms: _193  and  _194
REMARK   83  A    between atoms: _199  and  _200
REMARK   84  A    between atoms: _202  and  _204
REMARK   85  A    between atoms: _204  and  _205
REMARK   86  A    between atoms: _204  and  _207
REMARK   87  A    between atoms: _209  and  _211
REMARK   88  A    between atoms: _211  and  _212
REMARK   89  A    between atoms: _211  and  _214
REMARK   90  A    between atoms: _217  and  _219
REMARK   91  A    between atoms: _219  and  _220
REMARK   92  A    between atoms: _223  and  _225
REMARK   93  A    between atoms: _225  and  _226
REMARK   94  A    between atoms: _228  and  _230
REMARK   95  A    between atoms: _230  and  _231
REMARK   96  A    between atoms: _230  and  _233
REMARK   97  A    between atoms: _233  and  _234
REMARK   98  A    between atoms: _237  and  _239
REMARK   99  A    between atoms: _239  and  _240
REMARK  100  A    between atoms: _239  and  _242
REMARK  101  A    between atoms: _245  and  _247
REMARK  102  A    between atoms: _247  and  _248
REMARK  103  A    between atoms: _250  and  _252
REMARK  104  A    between atoms: _252  and  _253
REMARK  105  A    between atoms: _252  and  _255
REMARK  106  A    between atoms: _255  and  _256
REMARK  107  A    between atoms: _256  and  _257
REMARK  108  A    between atoms: _260  and  _262
REMARK  109  A    between atoms: _262  and  _263
REMARK  110  A    between atoms: _262  and  _265
REMARK  111  A    between atoms: _268  and  _270
REMARK  112  A    between atoms: _270  and  _271
REMARK  113  A    between atoms: _270  and  _273
REMARK  114  A    between atoms: _273  and  _274
REMARK  115  A    between atoms: _277  and  _279
REMARK  116  A    between atoms: _279  and  _280
REMARK  117  A    between atoms: _279  and  _282
REMARK  118  A    between atoms: _282  and  _283
REMARK  119  A    between atoms: _286  and  _288
REMARK  120  A    between atoms: _288  and  _289
REMARK  121  A    between atoms: _288  and  _291
REMARK  122  A    between atoms: _291  and  _292
REMARK  123  A    between atoms: _295  and  _297
REMARK  124  A    between atoms: _297  and  _298
REMARK  125  A    between atoms: _297  and  _300
REMARK  126  A    between atoms: _300  and  _301
REMARK  127  A    between atoms: _304  and  _306
REMARK  128  A    between atoms: _306  and  _307
REMARK  129  A    between atoms: _306  and  _309
REMARK  130  A    between atoms: _309  and  _310
REMARK  131  A    between atoms: _312  and  _314
REMARK  132  A    between atoms: _314  and  _315
REMARK  133  A    between atoms: _314  and  _317
REMARK  134  A    between atoms: _317  and  _318
REMARK  135  A    between atoms: _321  and  _323
REMARK  136  A    between atoms: _323  and  _324
REMARK  137  A    between atoms: _323  and  _326
REMARK  138  A    between atoms: _326  and  _327
REMARK  139  A    between atoms: _332  and  _333
REMARK  140  A    between atoms: _335  and  _337
REMARK  141  A    between atoms: _337  and  _338
REMARK  142  A    between atoms: _337  and  _340
REMARK  143  A    between atoms: _343  and  _345
REMARK  144  A    between atoms: _345  and  _346
REMARK  145  A    between atoms: _349  and  _351
REMARK  146  A    between atoms: _351  and  _352
REMARK  147  A    between atoms: _351  and  _354
REMARK  148  A    between atoms: _354  and  _355
REMARK  149  A    between atoms: _355  and  _356
REMARK  150  A    between atoms: _356  and  _357
REMARK  151  A    between atoms: _366  and  _368
REMARK  152  A    between atoms: _368  and  _369
REMARK  153  A    between atoms: _368  and  _371
REMARK  154  A    between atoms: _371  and  _372
REMARK  155  A    between atoms: _372  and  _373
REMARK  156  A    between atoms: _373  and  _374
REMARK  157  A    between atoms: _383  and  _385
REMARK  158  A    between atoms: _385  and  _386
REMARK  159  A    between atoms: _385  and  _388
REMARK  160  A    between atoms: _388  and  _389
REMARK  161  A    between atoms: _392  and  _394
REMARK  162  A    between atoms: _394  and  _395
REMARK  163  A    between atoms: _397  and  _399
REMARK  164  A    between atoms: _399  and  _400
REMARK  165  A    between atoms: _399  and  _402
REMARK  166  A    between atoms: _402  and  _403
REMARK  167  A    between atoms: _403  and  _404
REMARK  168  A    between atoms: _407  and  _409
REMARK  169  A    between atoms: _409  and  _410
REMARK  170  A    between atoms: _409  and  _412
REMARK  171  A    between atoms: _412  and  _413
REMARK  172  A    between atoms: _415  and  _417
REMARK  173  A    between atoms: _417  and  _418
REMARK  174  A    between atoms: _417  and  _420
REMARK  175  A    between atoms: _420  and  _421
REMARK  176  A    between atoms: _424  and  _426
REMARK  177  A    between atoms: _426  and  _427
REMARK  178  A    between atoms: _426  and  _429
REMARK  179  A    between atoms: _429  and  _430
REMARK  180  A    between atoms: _430  and  _431
REMARK  181  A    between atoms: _436  and  _438
REMARK  182  A    between atoms: _438  and  _439
REMARK  183  A    between atoms: _438  and  _441
REMARK  184  A    between atoms: _441  and  _442
REMARK  185  A    between atoms: _445  and  _447
REMARK  186  A    between atoms: _447  and  _448
REMARK  187  A    between atoms: _447  and  _450
REMARK  188  A    between atoms: _450  and  _451
REMARK  189  A    between atoms: _454  and  _456
REMARK  190  A    between atoms: _456  and  _457
REMARK  191  A    between atoms: _456  and  _459
REMARK  192  A    between atoms: _459  and  _460
REMARK  193  A    between atoms: _460  and  _461
REMARK  194  A    between atoms: _460  and  _462
REMARK  195  A    between atoms: _461  and  MG_705
REMARK  196  A    between atoms: _465  and  _467
REMARK  197  A    between atoms: _467  and  _468
REMARK  198  A    between atoms: _467  and  _470
REMARK  199  A    between atoms: _470  and  _471
REMARK  200  A    between atoms: _474  and  _476
REMARK  201  A    between atoms: _476  and  _477
REMARK  202  A    between atoms: _476  and  _479
REMARK  203  A    between atoms: _479  and  _480
REMARK  204  A    between atoms: _480  and  _481
REMARK  205  A    between atoms: _481  and  _482
REMARK  206  A    between atoms: _491  and  _493
REMARK  207  A    between atoms: _493  and  _494
REMARK  208  A    between atoms: _493  and  _496
REMARK  209  A    between atoms: _496  and  _497
REMARK  210  A    between atoms: _497  and  _499
REMARK  211  A    between atoms: _499  and  MG_705
REMARK  212  A    between atoms: _500  and  _502
REMARK  213  A    between atoms: _502  and  _503
REMARK  214  A    between atoms: _502  and  _505
REMARK  215  A    between atoms: _505  and  _506
REMARK  216  A    between atoms: _506  and  _507
REMARK  217  A    between atoms: _510  and  _512
REMARK  218  A    between atoms: _512  and  _513
REMARK  219  A    between atoms: _512  and  _515
REMARK  220  A    between atoms: _515  and  _516
REMARK  221  A    between atoms: _519  and  _521
REMARK  222  A    between atoms: _521  and  _522
REMARK  223  A    between atoms: _521  and  _524
REMARK  224  A    between atoms: _524  and  _525
REMARK  225  A    between atoms: _530  and  _532
REMARK  226  A    between atoms: _532  and  _533
REMARK  227  A    between atoms: _532  and  _535
REMARK  228  A    between atoms: _535  and  _536
REMARK  229  A    between atoms: _536  and  _537
REMARK  230  A    between atoms: _537  and  _538
REMARK  231  A    between atoms: _547  and  _549
REMARK  232  A    between atoms: _549  and  _550
REMARK  233  A    between atoms: _549  and  _552
REMARK  234  A    between atoms: _552  and  _553
REMARK  235  A    between atoms: _558  and  _559
REMARK  236  A    between atoms: _561  and  _563
REMARK  237  A    between atoms: _563  and  _564
REMARK  238  A    between atoms: _563  and  _566
REMARK  239  A    between atoms: _569  and  _571
REMARK  240  A    between atoms: _571  and  _572
REMARK  241  A    between atoms: _571  and  _574
REMARK  242  A    between atoms: _574  and  _575
REMARK  243  A    between atoms: _575  and  _576
REMARK  244  A    between atoms: _578  and  _580
REMARK  245  A    between atoms: _580  and  _581
REMARK  246  A    between atoms: _580  and  _583
REMARK  247  A    between atoms: _583  and  _584
REMARK  248  A    between atoms: _587  and  _589
REMARK  249  A    between atoms: _589  and  _590
REMARK  250  A    between atoms: _589  and  _592
REMARK  251  A    between atoms: _595  and  _597
REMARK  252  A    between atoms: _597  and  _598
REMARK  253  A    between atoms: _597  and  _600
REMARK  254  A    between atoms: _600  and  _601
REMARK  255  A    between atoms: _607  and  _609
REMARK  256  A    between atoms: _609  and  _610
REMARK  257  A    between atoms: _613  and  _615
REMARK  258  A    between atoms: _615  and  _616
REMARK  259  A    between atoms: _615  and  _618
REMARK  260  A    between atoms: _618  and  _619
REMARK  261  A    between atoms: _619  and  _620
REMARK  262  A    between atoms: _625  and  _627
REMARK  263  A    between atoms: _627  and  _628
REMARK  264  A    between atoms: _627  and  _630
REMARK  265  A    between atoms: _630  and  _631
REMARK  266  A    between atoms: _634  and  _636
REMARK  267  A    between atoms: _636  and  _637
REMARK  268  A    between atoms: _636  and  _639
REMARK  269  A    between atoms: _639  and  _640
REMARK  270  A    between atoms: _643  and  _645
REMARK  271  A    between atoms: _645  and  _646
REMARK  272  A    between atoms: _645  and  _648
REMARK  273  A    between atoms: _648  and  _649
REMARK  274  A    between atoms: _649  and  _650
REMARK  275  A    between atoms: _653  and  _655
REMARK  276  A    between atoms: _655  and  _656
REMARK  277  A    between atoms: _659  and  _661
REMARK  278  A    between atoms: _661  and  _662
REMARK  279  A    between atoms: _665  and  _667
REMARK  280  A    between atoms: _667  and  _668
REMARK  281  A    between atoms: _667  and  _670
REMARK  282  A    between atoms: _670  and  _671
REMARK  283  A    between atoms: _676  and  _677
REMARK  284  A    between atoms: _679  and  _681
REMARK  285  A    between atoms: _681  and  _682
REMARK  286  A    between atoms: _681  and  _684
REMARK  287  A    between atoms: _684  and  _685
REMARK  288  A    between atoms: _688  and  _690
REMARK  289  A    between atoms: _690  and  _691
REMARK  290  A    between atoms: _690  and  _693
REMARK  291  A    between atoms: _693  and  _694
REMARK  292  A    between atoms: _694  and  _695
REMARK  293  A    between atoms: _695  and  _696
REMARK                            x       y       z     vdW  Elec       q    Type
REMARK                         _______ _______ _______ _____ _____    ______ ____
ROOT
ATOM      1  O   HOH     1      25.830  55.849  44.026  0.00  0.00    +0.000 OA
ENDROOT
TORSDOF 0
REMARK  Name = ../refined-set-2016/2zcr/2zcr_pocket.pdb
REMARK  293 active torsions:
REMARK  status: ('A' for Active; 'I' for Inactive)
REMARK    1  A    between atoms: _1  and  _3
REMARK    2  A    between atoms: _3  and  _4
REMARK    3  A    between atoms: _3  and  _6
REMARK    4  A    between atoms: _6  and  _7
REMARK    5  A    between atoms: _7  and  _8
REMARK    6  A    between atoms: _10  and  _12
REMARK    7  A    between atoms: _12  and  _13
REMARK    8  A    between atoms: _12  and  _15
REMARK    9  A    between atoms: _15  and  _16
REMARK   10  A    between atoms: _21  and  _23
REMARK   11  A    between atoms: _23  and  _24
REMARK   12  A    between atoms: _23  and  _26
REMARK   13  A    between atoms: _26  and  _27
REMARK   14  A    between atoms: _29  and  _31
REMARK   15  A    between atoms: _31  and  _32
REMARK   16  A    between atoms: _31  and  _34
REMARK   17  A    between atoms: _34  and  _35
REMARK   18  A    between atoms: _35  and  _36
REMARK   19  A    between atoms: _36  and  _37
REMARK   20  A    between atoms: _37  and  _38
REMARK   21  A    between atoms: _42  and  _44
REMARK   22  A    between atoms: _44  and  _45
REMARK   23  A    between atoms: _44  and  _47
REMARK   24  A    between atoms: _47  and  _48
REMARK   25  A    between atoms: _50  and  _52
REMARK   26  A    between atoms: _52  and  _53
REMARK   27  A    between atoms: _52  and  _55
REMARK   28  A    between atoms: _55  and  _56
REMARK   29  A    between atoms: _62  and  _64
REMARK   30  A    between atoms: _64  and  _65
REMARK   31  A    between atoms: _68  and  _70
REMARK   32  A    between atoms: _70  and  _71
REMARK   33  A    between atoms: _70  and  _73
REMARK   34  A    between atoms: _73  and  _74
REMARK   35  A    between atoms: _80  and  _82
REMARK   36  A    between atoms: _82  and  _83
REMARK   37  A    between atoms: _82  and  _85
REMARK   38  A    between atoms: _85  and  _86
REMARK   39  A    between atoms: _89  and  _91
REMARK   40  A    between atoms: _91  and  _92
REMARK   41  A    between atoms: _91  and  _94
REMARK   42  A    between atoms: _97  and  _99
REMARK   43  A    between atoms: _99  and  _100
REMARK   44  A    between atoms: _99  and  _102
REMARK   45  A    between atoms: _102  and  _103
REMARK   46  A    between atoms: _106  and  _108
REMARK   47  A    between atoms: _108  and  _109
REMARK   48  A    between atoms: _108  and  _111
REMARK   49  A    between atoms: _111  and  _112
REMARK   50  A    between atoms: _117  and  _118
REMARK   51  A    between atoms: _120  and  _122
REMARK   52  A    between atoms: _122  and  _123
REMARK   53  A    between atoms: _122  and  _125
REMARK   54  A    between atoms: _127  and  _129
REMARK   55  A    between atoms: _129  and  _130
REMARK   56  A    between atoms: _129  and  _132
REMARK   57  A    between atoms: _132  and  _133
REMARK   58  A    between atoms: _133  and  _134
REMARK   59  A    between atoms: _134  and  _135
REMARK   60  A    between atoms: _144  and  _146
REMARK   61  A    between atoms: _146  and  _147
REMARK   62  A    between atoms: _146  and  _149
REMARK   63  A    between atoms: _149  and  _150
REMARK   64  A    between atoms: _153  and  _155
REMARK   65  A    between atoms: _155  and  _156
REMARK   66  A    between atoms: _155  and  _158
REMARK   67  A    between atoms: _158  and  _159
REMARK   68  A    between atoms: _162  and  _164
REMARK   69  A    between atoms: _164  and  _165
REMARK   70  A    between atoms: _164  and  _167
REMARK   71  A    between atoms: _167  and  _168
REMARK   72  A    between atoms: _171  and  _173
REMARK   73  A    between atoms: _173  and  _174
REMARK   74  A    between atoms: _173  and  _176
REMARK   75  A    between atoms: _179  and  _181
REMARK   76  A    between atoms: _181  and  _182
REMARK   77  A    between atoms: _181  and  _184
REMARK   78  A    between atoms: _184  and  _185
REMARK   79  A    between atoms: _188  and  _190
REMARK   80  A    between atoms: _190  and  _191
REMARK   81  A    between atoms: _190  and  _193
REMARK   82  A    between atoms: _193  and  _194
REMARK   83  A    between atoms: _199  and  _200
REMARK   84  A    between atoms: _202  and  _204
REMARK   85  A    between atoms: _204  and  _205
REMARK   86  A    between atoms: _204  and  _207
REMARK   87  A    between atoms: _209  and  _211
REMARK   88  A    between atoms: _211  and  _212
REMARK   89  A    between atoms: _211  and  _214
REMARK   90  A    between atoms: _217  and  _219
REMARK   91  A    between atoms: _219  and  _220
REMARK   92  A    between atoms: _223  and  _225
REMARK   93  A    between atoms: _225  and  _226
REMARK   94  A    between atoms: _228  and  _230
REMARK   95  A    between atoms: _230  and  _231
REMARK   96  A    between atoms: _230  and  _233
REMARK   97  A    between atoms: _233  and  _234
REMARK   98  A    between atoms: _237  and  _239
REMARK   99  A    between atoms: _239  and  _240
REMARK  100  A    between atoms: _239  and  _242
REMARK  101  A    between atoms: _245  and  _247
REMARK  102  A    between atoms: _247  and  _248
REMARK  103  A    between atoms: _250  and  _252
REMARK  104  A    between atoms: _252  and  _253
REMARK  105  A    between atoms: _252  and  _255
REMARK  106  A    between atoms: _255  and  _256
REMARK  107  A    between atoms: _256  and  _257
REMARK  108  A    between atoms: _260  and  _262
REMARK  109  A    between atoms: _262  and  _263
REMARK  110  A    between atoms: _262  and  _265
REMARK  111  A    between atoms: _268  and  _270
REMARK  112  A    between atoms: _270  and  _271
REMARK  113  A    between atoms: _270  and  _273
REMARK  114  A    between atoms: _273  and  _274
REMARK  115  A    between atoms: _277  and  _279
REMARK  116  A    between atoms: _279  and  _280
REMARK  117  A    between atoms: _279  and  _282
REMARK  118  A    between atoms: _282  and  _283
REMARK  119  A    between atoms: _286  and  _288
REMARK  120  A    between atoms: _288  and  _289
REMARK  121  A    between atoms: _288  and  _291
REMARK  122  A    between atoms: _291  and  _292
REMARK  123  A    between atoms: _295  and  _297
REMARK  124  A    between atoms: _297  and  _298
REMARK  125  A    between atoms: _297  and  _300
REMARK  126  A    between atoms: _300  and  _301
REMARK  127  A    between atoms: _304  and  _306
REMARK  128  A    between atoms: _306  and  _307
REMARK  129  A    between atoms: _306  and  _309
REMARK  130  A    between atoms: _309  and  _310
REMARK  131  A    between atoms: _312  and  _314
REMARK  132  A    between atoms: _314  and  _315
REMARK  133  A    between atoms: _314  and  _317
REMARK  134  A    between atoms: _317  and  _318
REMARK  135  A    between atoms: _321  and  _323
REMARK  136  A    between atoms: _323  and  _324
REMARK  137  A    between atoms: _323  and  _326
REMARK  138  A    between atoms: _326  and  _327
REMARK  139  A    between atoms: _332  and  _333
REMARK  140  A    between atoms: _335  and  _337
REMARK  141  A    between atoms: _337  and  _338
REMARK  142  A    between atoms: _337  and  _340
REMARK  143  A    between atoms: _343  and  _345
REMARK  144  A    between atoms: _345  and  _346
REMARK  145  A    between atoms: _349  and  _351
REMARK  146  A    between atoms: _351  and  _352
REMARK  147  A    between atoms: _351  and  _354
REMARK  148  A    between atoms: _354  and  _355
REMARK  149  A    between atoms: _355  and  _356
REMARK  150  A    between atoms: _356  and  _357
REMARK  151  A    between atoms: _366  and  _368
REMARK  152  A    between atoms: _368  and  _369
REMARK  153  A    between atoms: _368  and  _371
REMARK  154  A    between atoms: _371  and  _372
REMARK  155  A    between atoms: _372  and  _373
REMARK  156  A    between atoms: _373  and  _374
REMARK  157  A    between atoms: _383  and  _385
REMARK  158  A    between atoms: _385  and  _386
REMARK  159  A    between atoms: _385  and  _388
REMARK  160  A    between atoms: _388  and  _389
REMARK  161  A    between atoms: _392  and  _394
REMARK  162  A    between atoms: _394  and  _395
REMARK  163  A    between atoms: _397  and  _399
REMARK  164  A    between atoms: _399  and  _400
REMARK  165  A    between atoms: _399  and  _402
REMARK  166  A    between atoms: _402  and  _403
REMARK  167  A    between atoms: _403  and  _404
REMARK  168  A    between atoms: _407  and  _409
REMARK  169  A    between atoms: _409  and  _410
REMARK  170  A    between atoms: _409  and  _412
REMARK  171  A    between atoms: _412  and  _413
REMARK  172  A    between atoms: _415  and  _417
REMARK  173  A    between atoms: _417  and  _418
REMARK  174  A    between atoms: _417  and  _420
REMARK  175  A    between atoms: _420  and  _421
REMARK  176  A    between atoms: _424  and  _426
REMARK  177  A    between atoms: _426  and  _427
REMARK  178  A    between atoms: _426  and  _429
REMARK  179  A    between atoms: _429  and  _430
REMARK  180  A    between atoms: _430  and  _431
REMARK  181  A    between atoms: _436  and  _438
REMARK  182  A    between atoms: _438  and  _439
REMARK  183  A    between atoms: _438  and  _441
REMARK  184  A    between atoms: _441  and  _442
REMARK  185  A    between atoms: _445  and  _447
REMARK  186  A    between atoms: _447  and  _448
REMARK  187  A    between atoms: _447  and  _450
REMARK  188  A    between atoms: _450  and  _451
REMARK  189  A    between atoms: _454  and  _456
REMARK  190  A    between atoms: _456  and  _457
REMARK  191  A    between atoms: _456  and  _459
REMARK  192  A    between atoms: _459  and  _460
REMARK  193  A    between atoms: _460  and  _461
REMARK  194  A    between atoms: _460  and  _462
REMARK  195  A    between atoms: _461  and  MG_705
REMARK  196  A    between atoms: _465  and  _467
REMARK  197  A    between atoms: _467  and  _468
REMARK  198  A    between atoms: _467  and  _470
REMARK  199  A    between atoms: _470  and  _471
REMARK  200  A    between atoms: _474  and  _476
REMARK  201  A    between atoms: _476  and  _477
REMARK  202  A    between atoms: _476  and  _479
REMARK  203  A    between atoms: _479  and  _480
REMARK  204  A    between atoms: _480  and  _481
REMARK  205  A    between atoms: _481  and  _482
REMARK  206  A    between atoms: _491  and  _493
REMARK  207  A    between atoms: _493  and  _494
REMARK  208  A    between atoms: _493  and  _496
REMARK  209  A    between atoms: _496  and  _497
REMARK  210  A    between atoms: _497  and  _499
REMARK  211  A    between atoms: _499  and  MG_705
REMARK  212  A    between atoms: _500  and  _502
REMARK  213  A    between atoms: _502  and  _503
REMARK  214  A    between atoms: _502  and  _505
REMARK  215  A    between atoms: _505  and  _506
REMARK  216  A    between atoms: _506  and  _507
REMARK  217  A    between atoms: _510  and  _512
REMARK  218  A    between atoms: _512  and  _513
REMARK  219  A    between atoms: _512  and  _515
REMARK  220  A    between atoms: _515  and  _516
REMARK  221  A    between atoms: _519  and  _521
REMARK  222  A    between atoms: _521  and  _522
REMARK  223  A    between atoms: _521  and  _524
REMARK  224  A    between atoms: _524  and  _525
REMARK  225  A    between atoms: _530  and  _532
REMARK  226  A    between atoms: _532  and  _533
REMARK  227  A    between atoms: _532  and  _535
REMARK  228  A    between atoms: _535  and  _536
REMARK  229  A    between atoms: _536  and  _537
REMARK  230  A    between atoms: _537  and  _538
REMARK  231  A    between atoms: _547  and  _549
REMARK  232  A    between atoms: _549  and  _550
REMARK  233  A    between atoms: _549  and  _552
REMARK  234  A    between atoms: _552  and  _553
REMARK  235  A    between atoms: _558  and  _559
REMARK  236  A    between atoms: _561  and  _563
REMARK  237  A    between atoms: _563  and  _564
REMARK  238  A    between atoms: _563  and  _566
REMARK  239  A    between atoms: _569  and  _571
REMARK  240  A    between atoms: _571  and  _572
REMARK  241  A    between atoms: _571  and  _574
REMARK  242  A    between atoms: _574  and  _575
REMARK  243  A    between atoms: _575  and  _576
REMARK  244  A    between atoms: _578  and  _580
REMARK  245  A    between atoms: _580  and  _581
REMARK  246  A    between atoms: _580  and  _583
REMARK  247  A    between atoms: _583  and  _584
REMARK  248  A    between atoms: _587  and  _589
REMARK  249  A    between atoms: _589  and  _590
REMARK  250  A    between atoms: _589  and  _592
REMARK  251  A    between atoms: _595  and  _597
REMARK  252  A    between atoms: _597  and  _598
REMARK  253  A    between atoms: _597  and  _600
REMARK  254  A    between atoms: _600  and  _601
REMARK  255  A    between atoms: _607  and  _609
REMARK  256  A    between atoms: _609  and  _610
REMARK  257  A    between atoms: _613  and  _615
REMARK  258  A    between atoms: _615  and  _616
REMARK  259  A    between atoms: _615  and  _618
REMARK  260  A    between atoms: _618  and  _619
REMARK  261  A    between atoms: _619  and  _620
REMARK  262  A    between atoms: _625  and  _627
REMARK  263  A    between atoms: _627  and  _628
REMARK  264  A    between atoms: _627  and  _630
REMARK  265  A    between atoms: _630  and  _631
REMARK  266  A    between atoms: _634  and  _636
REMARK  267  A    between atoms: _636  and  _637
REMARK  268  A    between atoms: _636  and  _639
REMARK  269  A    between atoms: _639  and  _640
REMARK  270  A    between atoms: _643  and  _645
REMARK  271  A    between atoms: _645  and  _646
REMARK  272  A    between atoms: _645  and  _648
REMARK  273  A    between atoms: _648  and  _649
REMARK  274  A    between atoms: _649  and  _650
REMARK  275  A    between atoms: _653  and  _655
REMARK  276  A    between atoms: _655  and  _656
REMARK  277  A    between atoms: _659  and  _661
REMARK  278  A    between atoms: _661  and  _662
REMARK  279  A    between atoms: _665  and  _667
REMARK  280  A    between atoms: _667  and  _668
REMARK  281  A    between atoms: _667  and  _670
REMARK  282  A    between atoms: _670  and  _671
REMARK  283  A    between atoms: _676  and  _677
REMARK  284  A    between atoms: _679  and  _681
REMARK  285  A    between atoms: _681  and  _682
REMARK  286  A    between atoms: _681  and  _684
REMARK  287  A    between atoms: _684  and  _685
REMARK  288  A    between atoms: _688  and  _690
REMARK  289  A    between atoms: _690  and  _691
REMARK  290  A    between atoms: _690  and  _693
REMARK  291  A    between atoms: _693  and  _694
REMARK  292  A    between atoms: _694  and  _695
REMARK  293  A    between atoms: _695  and  _696
REMARK                            x       y       z     vdW  Elec       q    Type
REMARK                         _______ _______ _______ _____ _____    ______ ____
ROOT
ATOM      1  O   HOH     1      26.990  50.414  34.372  0.00  0.00    +0.000 OA
ENDROOT
TORSDOF 0
REMARK  Name = ../refined-set-2016/2zcr/2zcr_pocket.pdb
REMARK  293 active torsions:
REMARK  status: ('A' for Active; 'I' for Inactive)
REMARK    1  A    between atoms: _1  and  _3
REMARK    2  A    between atoms: _3  and  _4
REMARK    3  A    between atoms: _3  and  _6
REMARK    4  A    between atoms: _6  and  _7
REMARK    5  A    between atoms: _7  and  _8
REMARK    6  A    between atoms: _10  and  _12
REMARK    7  A    between atoms: _12  and  _13
REMARK    8  A    between atoms: _12  and  _15
REMARK    9  A    between atoms: _15  and  _16
REMARK   10  A    between atoms: _21  and  _23
REMARK   11  A    between atoms: _23  and  _24
REMARK   12  A    between atoms: _23  and  _26
REMARK   13  A    between atoms: _26  and  _27
REMARK   14  A    between atoms: _29  and  _31
REMARK   15  A    between atoms: _31  and  _32
REMARK   16  A    between atoms: _31  and  _34
REMARK   17  A    between atoms: _34  and  _35
REMARK   18  A    between atoms: _35  and  _36
REMARK   19  A    between atoms: _36  and  _37
REMARK   20  A    between atoms: _37  and  _38
REMARK   21  A    between atoms: _42  and  _44
REMARK   22  A    between atoms: _44  and  _45
REMARK   23  A    between atoms: _44  and  _47
REMARK   24  A    between atoms: _47  and  _48
REMARK   25  A    between atoms: _50  and  _52
REMARK   26  A    between atoms: _52  and  _53
REMARK   27  A    between atoms: _52  and  _55
REMARK   28  A    between atoms: _55  and  _56
REMARK   29  A    between atoms: _62  and  _64
REMARK   30  A    between atoms: _64  and  _65
REMARK   31  A    between atoms: _68  and  _70
REMARK   32  A    between atoms: _70  and  _71
REMARK   33  A    between atoms: _70  and  _73
REMARK   34  A    between atoms: _73  and  _74
REMARK   35  A    between atoms: _80  and  _82
REMARK   36  A    between atoms: _82  and  _83
REMARK   37  A    between atoms: _82  and  _85
REMARK   38  A    between atoms: _85  and  _86
REMARK   39  A    between atoms: _89  and  _91
REMARK   40  A    between atoms: _91  and  _92
REMARK   41  A    between atoms: _91  and  _94
REMARK   42  A    between atoms: _97  and  _99
REMARK   43  A    between atoms: _99  and  _100
REMARK   44  A    between atoms: _99  and  _102
REMARK   45  A    between atoms: _102  and  _103
REMARK   46  A    between atoms: _106  and  _108
REMARK   47  A    between atoms: _108  and  _109
REMARK   48  A    between atoms: _108  and  _111
REMARK   49  A    between atoms: _111  and  _112
REMARK   50  A    between atoms: _117  and  _118
REMARK   51  A    between atoms: _120  and  _122
REMARK   52  A    between atoms: _122  and  _123
REMARK   53  A    between atoms: _122  and  _125
REMARK   54  A    between atoms: _127  and  _129
REMARK   55  A    between atoms: _129  and  _130
REMARK   56  A    between atoms: _129  and  _132
REMARK   57  A    between atoms: _132  and  _133
REMARK   58  A    between atoms: _133  and  _134
REMARK   59  A    between atoms: _134  and  _135
REMARK   60  A    between atoms: _144  and  _146
REMARK   61  A    between atoms: _146  and  _147
REMARK   62  A    between atoms: _146  and  _149
REMARK   63  A    between atoms: _149  and  _150
REMARK   64  A    between atoms: _153  and  _155
REMARK   65  A    between atoms: _155  and  _156
REMARK   66  A    between atoms: _155  and  _158
REMARK   67  A    between atoms: _158  and  _159
REMARK   68  A    between atoms: _162  and  _164
REMARK   69  A    between atoms: _164  and  _165
REMARK   70  A    between atoms: _164  and  _167
REMARK   71  A    between atoms: _167  and  _168
REMARK   72  A    between atoms: _171  and  _173
REMARK   73  A    between atoms: _173  and  _174
REMARK   74  A    between atoms: _173  and  _176
REMARK   75  A    between atoms: _179  and  _181
REMARK   76  A    between atoms: _181  and  _182
REMARK   77  A    between atoms: _181  and  _184
REMARK   78  A    between atoms: _184  and  _185
REMARK   79  A    between atoms: _188  and  _190
REMARK   80  A    between atoms: _190  and  _191
REMARK   81  A    between atoms: _190  and  _193
REMARK   82  A    between atoms: _193  and  _194
REMARK   83  A    between atoms: _199  and  _200
REMARK   84  A    between atoms: _202  and  _204
REMARK   85  A    between atoms: _204  and  _205
REMARK   86  A    between atoms: _204  and  _207
REMARK   87  A    between atoms: _209  and  _211
REMARK   88  A    between atoms: _211  and  _212
REMARK   89  A    between atoms: _211  and  _214
REMARK   90  A    between atoms: _217  and  _219
REMARK   91  A    between atoms: _219  and  _220
REMARK   92  A    between atoms: _223  and  _225
REMARK   93  A    between atoms: _225  and  _226
REMARK   94  A    between atoms: _228  and  _230
REMARK   95  A    between atoms: _230  and  _231
REMARK   96  A    between atoms: _230  and  _233
REMARK   97  A    between atoms: _233  and  _234
REMARK   98  A    between atoms: _237  and  _239
REMARK   99  A    between atoms: _239  and  _240
REMARK  100  A    between atoms: _239  and  _242
REMARK  101  A    between atoms: _245  and  _247
REMARK  102  A    between atoms: _247  and  _248
REMARK  103  A    between atoms: _250  and  _252
REMARK  104  A    between atoms: _252  and  _253
REMARK  105  A    between atoms: _252  and  _255
REMARK  106  A    between atoms: _255  and  _256
REMARK  107  A    between atoms: _256  and  _257
REMARK  108  A    between atoms: _260  and  _262
REMARK  109  A    between atoms: _262  and  _263
REMARK  110  A    between atoms: _262  and  _265
REMARK  111  A    between atoms: _268  and  _270
REMARK  112  A    between atoms: _270  and  _271
REMARK  113  A    between atoms: _270  and  _273
REMARK  114  A    between atoms: _273  and  _274
REMARK  115  A    between atoms: _277  and  _279
REMARK  116  A    between atoms: _279  and  _280
REMARK  117  A    between atoms: _279  and  _282
REMARK  118  A    between atoms: _282  and  _283
REMARK  119  A    between atoms: _286  and  _288
REMARK  120  A    between atoms: _288  and  _289
REMARK  121  A    between atoms: _288  and  _291
REMARK  122  A    between atoms: _291  and  _292
REMARK  123  A    between atoms: _295  and  _297
REMARK  124  A    between atoms: _297  and  _298
REMARK  125  A    between atoms: _297  and  _300
REMARK  126  A    between atoms: _300  and  _301
REMARK  127  A    between atoms: _304  and  _306
REMARK  128  A    between atoms: _306  and  _307
REMARK  129  A    between atoms: _306  and  _309
REMARK  130  A    between atoms: _309  and  _310
REMARK  131  A    between atoms: _312  and  _314
REMARK  132  A    between atoms: _314  and  _315
REMARK  133  A    between atoms: _314  and  _317
REMARK  134  A    between atoms: _317  and  _318
REMARK  135  A    between atoms: _321  and  _323
REMARK  136  A    between atoms: _323  and  _324
REMARK  137  A    between atoms: _323  and  _326
REMARK  138  A    between atoms: _326  and  _327
REMARK  139  A    between atoms: _332  and  _333
REMARK  140  A    between atoms: _335  and  _337
REMARK  141  A    between atoms: _337  and  _338
REMARK  142  A    between atoms: _337  and  _340
REMARK  143  A    between atoms: _343  and  _345
REMARK  144  A    between atoms: _345  and  _346
REMARK  145  A    between atoms: _349  and  _351
REMARK  146  A    between atoms: _351  and  _352
REMARK  147  A    between atoms: _351  and  _354
REMARK  148  A    between atoms: _354  and  _355
REMARK  149  A    between atoms: _355  and  _356
REMARK  150  A    between atoms: _356  and  _357
REMARK  151  A    between atoms: _366  and  _368
REMARK  152  A    between atoms: _368  and  _369
REMARK  153  A    between atoms: _368  and  _371
REMARK  154  A    between atoms: _371  and  _372
REMARK  155  A    between atoms: _372  and  _373
REMARK  156  A    between atoms: _373  and  _374
REMARK  157  A    between atoms: _383  and  _385
REMARK  158  A    between atoms: _385  and  _386
REMARK  159  A    between atoms: _385  and  _388
REMARK  160  A    between atoms: _388  and  _389
REMARK  161  A    between atoms: _392  and  _394
REMARK  162  A    between atoms: _394  and  _395
REMARK  163  A    between atoms: _397  and  _399
REMARK  164  A    between atoms: _399  and  _400
REMARK  165  A    between atoms: _399  and  _402
REMARK  166  A    between atoms: _402  and  _403
REMARK  167  A    between atoms: _403  and  _404
REMARK  168  A    between atoms: _407  and  _409
REMARK  169  A    between atoms: _409  and  _410
REMARK  170  A    between atoms: _409  and  _412
REMARK  171  A    between atoms: _412  and  _413
REMARK  172  A    between atoms: _415  and  _417
REMARK  173  A    between atoms: _417  and  _418
REMARK  174  A    between atoms: _417  and  _420
REMARK  175  A    between atoms: _420  and  _421
REMARK  176  A    between atoms: _424  and  _426
REMARK  177  A    between atoms: _426  and  _427
REMARK  178  A    between atoms: _426  and  _429
REMARK  179  A    between atoms: _429  and  _430
REMARK  180  A    between atoms: _430  and  _431
REMARK  181  A    between atoms: _436  and  _438
REMARK  182  A    between atoms: _438  and  _439
REMARK  183  A    between atoms: _438  and  _441
REMARK  184  A    between atoms: _441  and  _442
REMARK  185  A    between atoms: _445  and  _447
REMARK  186  A    between atoms: _447  and  _448
REMARK  187  A    between atoms: _447  and  _450
REMARK  188  A    between atoms: _450  and  _451
REMARK  189  A    between atoms: _454  and  _456
REMARK  190  A    between atoms: _456  and  _457
REMARK  191  A    between atoms: _456  and  _459
REMARK  192  A    between atoms: _459  and  _460
REMARK  193  A    between atoms: _460  and  _461
REMARK  194  A    between atoms: _460  and  _462
REMARK  195  A    between atoms: _461  and  MG_705
REMARK  196  A    between atoms: _465  and  _467
REMARK  197  A    between atoms: _467  and  _468
REMARK  198  A    between atoms: _467  and  _470
REMARK  199  A    between atoms: _470  and  _471
REMARK  200  A    between atoms: _474  and  _476
REMARK  201  A    between atoms: _476  and  _477
REMARK  202  A    between atoms: _476  and  _479
REMARK  203  A    between atoms: _479  and  _480
REMARK  204  A    between atoms: _480  and  _481
REMARK  205  A    between atoms: _481  and  _482
REMARK  206  A    between atoms: _491  and  _493
REMARK  207  A    between atoms: _493  and  _494
REMARK  208  A    between atoms: _493  and  _496
REMARK  209  A    between atoms: _496  and  _497
REMARK  210  A    between atoms: _497  and  _499
REMARK  211  A    between atoms: _499  and  MG_705
REMARK  212  A    between atoms: _500  and  _502
REMARK  213  A    between atoms: _502  and  _503
REMARK  214  A    between atoms: _502  and  _505
REMARK  215  A    between atoms: _505  and  _506
REMARK  216  A    between atoms: _506  and  _507
REMARK  217  A    between atoms: _510  and  _512
REMARK  218  A    between atoms: _512  and  _513
REMARK  219  A    between atoms: _512  and  _515
REMARK  220  A    between atoms: _515  and  _516
REMARK  221  A    between atoms: _519  and  _521
REMARK  222  A    between atoms: _521  and  _522
REMARK  223  A    between atoms: _521  and  _524
REMARK  224  A    between atoms: _524  and  _525
REMARK  225  A    between atoms: _530  and  _532
REMARK  226  A    between atoms: _532  and  _533
REMARK  227  A    between atoms: _532  and  _535
REMARK  228  A    between atoms: _535  and  _536
REMARK  229  A    between atoms: _536  and  _537
REMARK  230  A    between atoms: _537  and  _538
REMARK  231  A    between atoms: _547  and  _549
REMARK  232  A    between atoms: _549  and  _550
REMARK  233  A    between atoms: _549  and  _552
REMARK  234  A    between atoms: _552  and  _553
REMARK  235  A    between atoms: _558  and  _559
REMARK  236  A    between atoms: _561  and  _563
REMARK  237  A    between atoms: _563  and  _564
REMARK  238  A    between atoms: _563  and  _566
REMARK  239  A    between atoms: _569  and  _571
REMARK  240  A    between atoms: _571  and  _572
REMARK  241  A    between atoms: _571  and  _574
REMARK  242  A    between atoms: _574  and  _575
REMARK  243  A    between atoms: _575  and  _576
REMARK  244  A    between atoms: _578  and  _580
REMARK  245  A    between atoms: _580  and  _581
REMARK  246  A    between atoms: _580  and  _583
REMARK  247  A    between atoms: _583  and  _584
REMARK  248  A    between atoms: _587  and  _589
REMARK  249  A    between atoms: _589  and  _590
REMARK  250  A    between atoms: _589  and  _592
REMARK  251  A    between atoms: _595  and  _597
REMARK  252  A    between atoms: _597  and  _598
REMARK  253  A    between atoms: _597  and  _600
REMARK  254  A    between atoms: _600  and  _601
REMARK  255  A    between atoms: _607  and  _609
REMARK  256  A    between atoms: _609  and  _610
REMARK  257  A    between atoms: _613  and  _615
REMARK  258  A    between atoms: _615  and  _616
REMARK  259  A    between atoms: _615  and  _618
REMARK  260  A    between atoms: _618  and  _619
REMARK  261  A    between atoms: _619  and  _620
REMARK  262  A    between atoms: _625  and  _627
REMARK  263  A    between atoms: _627  and  _628
REMARK  264  A    between atoms: _627  and  _630
REMARK  265  A    between atoms: _630  and  _631
REMARK  266  A    between atoms: _634  and  _636
REMARK  267  A    between atoms: _636  and  _637
REMARK  268  A    between atoms: _636  and  _639
REMARK  269  A    between atoms: _639  and  _640
REMARK  270  A    between atoms: _643  and  _645
REMARK  271  A    between atoms: _645  and  _646
REMARK  272  A    between atoms: _645  and  _648
REMARK  273  A    between atoms: _648  and  _649
REMARK  274  A    between atoms: _649  and  _650
REMARK  275  A    between atoms: _653  and  _655
REMARK  276  A    between atoms: _655  and  _656
REMARK  277  A    between atoms: _659  and  _661
REMARK  278  A    between atoms: _661  and  _662
REMARK  279  A    between atoms: _665  and  _667
REMARK  280  A    between atoms: _667  and  _668
REMARK  281  A    between atoms: _667  and  _670
REMARK  282  A    between atoms: _670  and  _671
REMARK  283  A    between atoms: _676  and  _677
REMARK  284  A    between atoms: _679  and  _681
REMARK  285  A    between atoms: _681  and  _682
REMARK  286  A    between atoms: _681  and  _684
REMARK  287  A    between atoms: _684  and  _685
REMARK  288  A    between atoms: _688  and  _690
REMARK  289  A    between atoms: _690  and  _691
REMARK  290  A    between atoms: _690  and  _693
REMARK  291  A    between atoms: _693  and  _694
REMARK  292  A    between atoms: _694  and  _695
REMARK  293  A    between atoms: _695  and  _696
REMARK                            x       y       z     vdW  Elec       q    Type
REMARK                         _______ _______ _______ _____ _____    ______ ____
ROOT
ATOM      1  O   HOH     1      28.334  58.713  40.134  0.00  0.00    +0.000 OA
ENDROOT
TORSDOF 0
REMARK  Name = ../refined-set-2016/2zcr/2zcr_pocket.pdb
REMARK  293 active torsions:
REMARK  status: ('A' for Active; 'I' for Inactive)
REMARK    1  A    between atoms: _1  and  _3
REMARK    2  A    between atoms: _3  and  _4
REMARK    3  A    between atoms: _3  and  _6
REMARK    4  A    between atoms: _6  and  _7
REMARK    5  A    between atoms: _7  and  _8
REMARK    6  A    between atoms: _10  and  _12
REMARK    7  A    between atoms: _12  and  _13
REMARK    8  A    between atoms: _12  and  _15
REMARK    9  A    between atoms: _15  and  _16
REMARK   10  A    between atoms: _21  and  _23
REMARK   11  A    between atoms: _23  and  _24
REMARK   12  A    between atoms: _23  and  _26
REMARK   13  A    between atoms: _26  and  _27
REMARK   14  A    between atoms: _29  and  _31
REMARK   15  A    between atoms: _31  and  _32
REMARK   16  A    between atoms: _31  and  _34
REMARK   17  A    between atoms: _34  and  _35
REMARK   18  A    between atoms: _35  and  _36
REMARK   19  A    between atoms: _36  and  _37
REMARK   20  A    between atoms: _37  and  _38
REMARK   21  A    between atoms: _42  and  _44
REMARK   22  A    between atoms: _44  and  _45
REMARK   23  A    between atoms: _44  and  _47
REMARK   24  A    between atoms: _47  and  _48
REMARK   25  A    between atoms: _50  and  _52
REMARK   26  A    between atoms: _52  and  _53
REMARK   27  A    between atoms: _52  and  _55
REMARK   28  A    between atoms: _55  and  _56
REMARK   29  A    between atoms: _62  and  _64
REMARK   30  A    between atoms: _64  and  _65
REMARK   31  A    between atoms: _68  and  _70
REMARK   32  A    between atoms: _70  and  _71
REMARK   33  A    between atoms: _70  and  _73
REMARK   34  A    between atoms: _73  and  _74
REMARK   35  A    between atoms: _80  and  _82
REMARK   36  A    between atoms: _82  and  _83
REMARK   37  A    between atoms: _82  and  _85
REMARK   38  A    between atoms: _85  and  _86
REMARK   39  A    between atoms: _89  and  _91
REMARK   40  A    between atoms: _91  and  _92
REMARK   41  A    between atoms: _91  and  _94
REMARK   42  A    between atoms: _97  and  _99
REMARK   43  A    between atoms: _99  and  _100
REMARK   44  A    between atoms: _99  and  _102
REMARK   45  A    between atoms: _102  and  _103
REMARK   46  A    between atoms: _106  and  _108
REMARK   47  A    between atoms: _108  and  _109
REMARK   48  A    between atoms: _108  and  _111
REMARK   49  A    between atoms: _111  and  _112
REMARK   50  A    between atoms: _117  and  _118
REMARK   51  A    between atoms: _120  and  _122
REMARK   52  A    between atoms: _122  and  _123
REMARK   53  A    between atoms: _122  and  _125
REMARK   54  A    between atoms: _127  and  _129
REMARK   55  A    between atoms: _129  and  _130
REMARK   56  A    between atoms: _129  and  _132
REMARK   57  A    between atoms: _132  and  _133
REMARK   58  A    between atoms: _133  and  _134
REMARK   59  A    between atoms: _134  and  _135
REMARK   60  A    between atoms: _144  and  _146
REMARK   61  A    between atoms: _146  and  _147
REMARK   62  A    between atoms: _146  and  _149
REMARK   63  A    between atoms: _149  and  _150
REMARK   64  A    between atoms: _153  and  _155
REMARK   65  A    between atoms: _155  and  _156
REMARK   66  A    between atoms: _155  and  _158
REMARK   67  A    between atoms: _158  and  _159
REMARK   68  A    between atoms: _162  and  _164
REMARK   69  A    between atoms: _164  and  _165
REMARK   70  A    between atoms: _164  and  _167
REMARK   71  A    between atoms: _167  and  _168
REMARK   72  A    between atoms: _171  and  _173
REMARK   73  A    between atoms: _173  and  _174
REMARK   74  A    between atoms: _173  and  _176
REMARK   75  A    between atoms: _179  and  _181
REMARK   76  A    between atoms: _181  and  _182
REMARK   77  A    between atoms: _181  and  _184
REMARK   78  A    between atoms: _184  and  _185
REMARK   79  A    between atoms: _188  and  _190
REMARK   80  A    between atoms: _190  and  _191
REMARK   81  A    between atoms: _190  and  _193
REMARK   82  A    between atoms: _193  and  _194
REMARK   83  A    between atoms: _199  and  _200
REMARK   84  A    between atoms: _202  and  _204
REMARK   85  A    between atoms: _204  and  _205
REMARK   86  A    between atoms: _204  and  _207
REMARK   87  A    between atoms: _209  and  _211
REMARK   88  A    between atoms: _211  and  _212
REMARK   89  A    between atoms: _211  and  _214
REMARK   90  A    between atoms: _217  and  _219
REMARK   91  A    between atoms: _219  and  _220
REMARK   92  A    between atoms: _223  and  _225
REMARK   93  A    between atoms: _225  and  _226
REMARK   94  A    between atoms: _228  and  _230
REMARK   95  A    between atoms: _230  and  _231
REMARK   96  A    between atoms: _230  and  _233
REMARK   97  A    between atoms: _233  and  _234
REMARK   98  A    between atoms: _237  and  _239
REMARK   99  A    between atoms: _239  and  _240
REMARK  100  A    between atoms: _239  and  _242
REMARK  101  A    between atoms: _245  and  _247
REMARK  102  A    between atoms: _247  and  _248
REMARK  103  A    between atoms: _250  and  _252
REMARK  104  A    between atoms: _252  and  _253
REMARK  105  A    between atoms: _252  and  _255
REMARK  106  A    between atoms: _255  and  _256
REMARK  107  A    between atoms: _256  and  _257
REMARK  108  A    between atoms: _260  and  _262
REMARK  109  A    between atoms: _262  and  _263
REMARK  110  A    between atoms: _262  and  _265
REMARK  111  A    between atoms: _268  and  _270
REMARK  112  A    between atoms: _270  and  _271
REMARK  113  A    between atoms: _270  and  _273
REMARK  114  A    between atoms: _273  and  _274
REMARK  115  A    between atoms: _277  and  _279
REMARK  116  A    between atoms: _279  and  _280
REMARK  117  A    between atoms: _279  and  _282
REMARK  118  A    between atoms: _282  and  _283
REMARK  119  A    between atoms: _286  and  _288
REMARK  120  A    between atoms: _288  and  _289
REMARK  121  A    between atoms: _288  and  _291
REMARK  122  A    between atoms: _291  and  _292
REMARK  123  A    between atoms: _295  and  _297
REMARK  124  A    between atoms: _297  and  _298
REMARK  125  A    between atoms: _297  and  _300
REMARK  126  A    between atoms: _300  and  _301
REMARK  127  A    between atoms: _304  and  _306
REMARK  128  A    between atoms: _306  and  _307
REMARK  129  A    between atoms: _306  and  _309
REMARK  130  A    between atoms: _309  and  _310
REMARK  131  A    between atoms: _312  and  _314
REMARK  132  A    between atoms: _314  and  _315
REMARK  133  A    between atoms: _314  and  _317
REMARK  134  A    between atoms: _317  and  _318
REMARK  135  A    between atoms: _321  and  _323
REMARK  136  A    between atoms: _323  and  _324
REMARK  137  A    between atoms: _323  and  _326
REMARK  138  A    between atoms: _326  and  _327
REMARK  139  A    between atoms: _332  and  _333
REMARK  140  A    between atoms: _335  and  _337
REMARK  141  A    between atoms: _337  and  _338
REMARK  142  A    between atoms: _337  and  _340
REMARK  143  A    between atoms: _343  and  _345
REMARK  144  A    between atoms: _345  and  _346
REMARK  145  A    between atoms: _349  and  _351
REMARK  146  A    between atoms: _351  and  _352
REMARK  147  A    between atoms: _351  and  _354
REMARK  148  A    between atoms: _354  and  _355
REMARK  149  A    between atoms: _355  and  _356
REMARK  150  A    between atoms: _356  and  _357
REMARK  151  A    between atoms: _366  and  _368
REMARK  152  A    between atoms: _368  and  _369
REMARK  153  A    between atoms: _368  and  _371
REMARK  154  A    between atoms: _371  and  _372
REMARK  155  A    between atoms: _372  and  _373
REMARK  156  A    between atoms: _373  and  _374
REMARK  157  A    between atoms: _383  and  _385
REMARK  158  A    between atoms: _385  and  _386
REMARK  159  A    between atoms: _385  and  _388
REMARK  160  A    between atoms: _388  and  _389
REMARK  161  A    between atoms: _392  and  _394
REMARK  162  A    between atoms: _394  and  _395
REMARK  163  A    between atoms: _397  and  _399
REMARK  164  A    between atoms: _399  and  _400
REMARK  165  A    between atoms: _399  and  _402
REMARK  166  A    between atoms: _402  and  _403
REMARK  167  A    between atoms: _403  and  _404
REMARK  168  A    between atoms: _407  and  _409
REMARK  169  A    between atoms: _409  and  _410
REMARK  170  A    between atoms: _409  and  _412
REMARK  171  A    between atoms: _412  and  _413
REMARK  172  A    between atoms: _415  and  _417
REMARK  173  A    between atoms: _417  and  _418
REMARK  174  A    between atoms: _417  and  _420
REMARK  175  A    between atoms: _420  and  _421
REMARK  176  A    between atoms: _424  and  _426
REMARK  177  A    between atoms: _426  and  _427
REMARK  178  A    between atoms: _426  and  _429
REMARK  179  A    between atoms: _429  and  _430
REMARK  180  A    between atoms: _430  and  _431
REMARK  181  A    between atoms: _436  and  _438
REMARK  182  A    between atoms: _438  and  _439
REMARK  183  A    between atoms: _438  and  _441
REMARK  184  A    between atoms: _441  and  _442
REMARK  185  A    between atoms: _445  and  _447
REMARK  186  A    between atoms: _447  and  _448
REMARK  187  A    between atoms: _447  and  _450
REMARK  188  A    between atoms: _450  and  _451
REMARK  189  A    between atoms: _454  and  _456
REMARK  190  A    between atoms: _456  and  _457
REMARK  191  A    between atoms: _456  and  _459
REMARK  192  A    between atoms: _459  and  _460
REMARK  193  A    between atoms: _460  and  _461
REMARK  194  A    between atoms: _460  and  _462
REMARK  195  A    between atoms: _461  and  MG_705
REMARK  196  A    between atoms: _465  and  _467
REMARK  197  A    between atoms: _467  and  _468
REMARK  198  A    between atoms: _467  and  _470
REMARK  199  A    between atoms: _470  and  _471
REMARK  200  A    between atoms: _474  and  _476
REMARK  201  A    between atoms: _476  and  _477
REMARK  202  A    between atoms: _476  and  _479
REMARK  203  A    between atoms: _479  and  _480
REMARK  204  A    between atoms: _480  and  _481
REMARK  205  A    between atoms: _481  and  _482
REMARK  206  A    between atoms: _491  and  _493
REMARK  207  A    between atoms: _493  and  _494
REMARK  208  A    between atoms: _493  and  _496
REMARK  209  A    between atoms: _496  and  _497
REMARK  210  A    between atoms: _497  and  _499
REMARK  211  A    between atoms: _499  and  MG_705
REMARK  212  A    between atoms: _500  and  _502
REMARK  213  A    between atoms: _502  and  _503
REMARK  214  A    between atoms: _502  and  _505
REMARK  215  A    between atoms: _505  and  _506
REMARK  216  A    between atoms: _506  and  _507
REMARK  217  A    between atoms: _510  and  _512
REMARK  218  A    between atoms: _512  and  _513
REMARK  219  A    between atoms: _512  and  _515
REMARK  220  A    between atoms: _515  and  _516
REMARK  221  A    between atoms: _519  and  _521
REMARK  222  A    between atoms: _521  and  _522
REMARK  223  A    between atoms: _521  and  _524
REMARK  224  A    between atoms: _524  and  _525
REMARK  225  A    between atoms: _530  and  _532
REMARK  226  A    between atoms: _532  and  _533
REMARK  227  A    between atoms: _532  and  _535
REMARK  228  A    between atoms: _535  and  _536
REMARK  229  A    between atoms: _536  and  _537
REMARK  230  A    between atoms: _537  and  _538
REMARK  231  A    between atoms: _547  and  _549
REMARK  232  A    between atoms: _549  and  _550
REMARK  233  A    between atoms: _549  and  _552
REMARK  234  A    between atoms: _552  and  _553
REMARK  235  A    between atoms: _558  and  _559
REMARK  236  A    between atoms: _561  and  _563
REMARK  237  A    between atoms: _563  and  _564
REMARK  238  A    between atoms: _563  and  _566
REMARK  239  A    between atoms: _569  and  _571
REMARK  240  A    between atoms: _571  and  _572
REMARK  241  A    between atoms: _571  and  _574
REMARK  242  A    between atoms: _574  and  _575
REMARK  243  A    between atoms: _575  and  _576
REMARK  244  A    between atoms: _578  and  _580
REMARK  245  A    between atoms: _580  and  _581
REMARK  246  A    between atoms: _580  and  _583
REMARK  247  A    between atoms: _583  and  _584
REMARK  248  A    between atoms: _587  and  _589
REMARK  249  A    between atoms: _589  and  _590
REMARK  250  A    between atoms: _589  and  _592
REMARK  251  A    between atoms: _595  and  _597
REMARK  252  A    between atoms: _597  and  _598
REMARK  253  A    between atoms: _597  and  _600
REMARK  254  A    between atoms: _600  and  _601
REMARK  255  A    between atoms: _607  and  _609
REMARK  256  A    between atoms: _609  and  _610
REMARK  257  A    between atoms: _613  and  _615
REMARK  258  A    between atoms: _615  and  _616
REMARK  259  A    between atoms: _615  and  _618
REMARK  260  A    between atoms: _618  and  _619
REMARK  261  A    between atoms: _619  and  _620
REMARK  262  A    between atoms: _625  and  _627
REMARK  263  A    between atoms: _627  and  _628
REMARK  264  A    between atoms: _627  and  _630
REMARK  265  A    between atoms: _630  and  _631
REMARK  266  A    between atoms: _634  and  _636
REMARK  267  A    between atoms: _636  and  _637
REMARK  268  A    between atoms: _636  and  _639
REMARK  269  A    between atoms: _639  and  _640
REMARK  270  A    between atoms: _643  and  _645
REMARK  271  A    between atoms: _645  and  _646
REMARK  272  A    between atoms: _645  and  _648
REMARK  273  A    between atoms: _648  and  _649
REMARK  274  A    between atoms: _649  and  _650
REMARK  275  A    between atoms: _653  and  _655
REMARK  276  A    between atoms: _655  and  _656
REMARK  277  A    between atoms: _659  and  _661
REMARK  278  A    between atoms: _661  and  _662
REMARK  279  A    between atoms: _665  and  _667
REMARK  280  A    between atoms: _667  and  _668
REMARK  281  A    between atoms: _667  and  _670
REMARK  282  A    between atoms: _670  and  _671
REMARK  283  A    between atoms: _676  and  _677
REMARK  284  A    between atoms: _679  and  _681
REMARK  285  A    between atoms: _681  and  _682
REMARK  286  A    between atoms: _681  and  _684
REMARK  287  A    between atoms: _684  and  _685
REMARK  288  A    between atoms: _688  and  _690
REMARK  289  A    between atoms: _690  and  _691
REMARK  290  A    between atoms: _690  and  _693
REMARK  291  A    between atoms: _693  and  _694
REMARK  292  A    between atoms: _694  and  _695
REMARK  293  A    between atoms: _695  and  _696
REMARK                            x       y       z     vdW  Elec       q    Type
REMARK                         _______ _______ _______ _____ _____    ______ ____
ROOT
ATOM      1  O   HOH     1      23.221  51.179  30.875  0.00  0.00    +0.000 OA
ENDROOT
TORSDOF 0
REMARK  Name = ../refined-set-2016/2zcr/2zcr_pocket.pdb
REMARK  293 active torsions:
REMARK  status: ('A' for Active; 'I' for Inactive)
REMARK    1  A    between atoms: _1  and  _3
REMARK    2  A    between atoms: _3  and  _4
REMARK    3  A    between atoms: _3  and  _6
REMARK    4  A    between atoms: _6  and  _7
REMARK    5  A    between atoms: _7  and  _8
REMARK    6  A    between atoms: _10  and  _12
REMARK    7  A    between atoms: _12  and  _13
REMARK    8  A    between atoms: _12  and  _15
REMARK    9  A    between atoms: _15  and  _16
REMARK   10  A    between atoms: _21  and  _23
REMARK   11  A    between atoms: _23  and  _24
REMARK   12  A    between atoms: _23  and  _26
REMARK   13  A    between atoms: _26  and  _27
REMARK   14  A    between atoms: _29  and  _31
REMARK   15  A    between atoms: _31  and  _32
REMARK   16  A    between atoms: _31  and  _34
REMARK   17  A    between atoms: _34  and  _35
REMARK   18  A    between atoms: _35  and  _36
REMARK   19  A    between atoms: _36  and  _37
REMARK   20  A    between atoms: _37  and  _38
REMARK   21  A    between atoms: _42  and  _44
REMARK   22  A    between atoms: _44  and  _45
REMARK   23  A    between atoms: _44  and  _47
REMARK   24  A    between atoms: _47  and  _48
REMARK   25  A    between atoms: _50  and  _52
REMARK   26  A    between atoms: _52  and  _53
REMARK   27  A    between atoms: _52  and  _55
REMARK   28  A    between atoms: _55  and  _56
REMARK   29  A    between atoms: _62  and  _64
REMARK   30  A    between atoms: _64  and  _65
REMARK   31  A    between atoms: _68  and  _70
REMARK   32  A    between atoms: _70  and  _71
REMARK   33  A    between atoms: _70  and  _73
REMARK   34  A    between atoms: _73  and  _74
REMARK   35  A    between atoms: _80  and  _82
REMARK   36  A    between atoms: _82  and  _83
REMARK   37  A    between atoms: _82  and  _85
REMARK   38  A    between atoms: _85  and  _86
REMARK   39  A    between atoms: _89  and  _91
REMARK   40  A    between atoms: _91  and  _92
REMARK   41  A    between atoms: _91  and  _94
REMARK   42  A    between atoms: _97  and  _99
REMARK   43  A    between atoms: _99  and  _100
REMARK   44  A    between atoms: _99  and  _102
REMARK   45  A    between atoms: _102  and  _103
REMARK   46  A    between atoms: _106  and  _108
REMARK   47  A    between atoms: _108  and  _109
REMARK   48  A    between atoms: _108  and  _111
REMARK   49  A    between atoms: _111  and  _112
REMARK   50  A    between atoms: _117  and  _118
REMARK   51  A    between atoms: _120  and  _122
REMARK   52  A    between atoms: _122  and  _123
REMARK   53  A    between atoms: _122  and  _125
REMARK   54  A    between atoms: _127  and  _129
REMARK   55  A    between atoms: _129  and  _130
REMARK   56  A    between atoms: _129  and  _132
REMARK   57  A    between atoms: _132  and  _133
REMARK   58  A    between atoms: _133  and  _134
REMARK   59  A    between atoms: _134  and  _135
REMARK   60  A    between atoms: _144  and  _146
REMARK   61  A    between atoms: _146  and  _147
REMARK   62  A    between atoms: _146  and  _149
REMARK   63  A    between atoms: _149  and  _150
REMARK   64  A    between atoms: _153  and  _155
REMARK   65  A    between atoms: _155  and  _156
REMARK   66  A    between atoms: _155  and  _158
REMARK   67  A    between atoms: _158  and  _159
REMARK   68  A    between atoms: _162  and  _164
REMARK   69  A    between atoms: _164  and  _165
REMARK   70  A    between atoms: _164  and  _167
REMARK   71  A    between atoms: _167  and  _168
REMARK   72  A    between atoms: _171  and  _173
REMARK   73  A    between atoms: _173  and  _174
REMARK   74  A    between atoms: _173  and  _176
REMARK   75  A    between atoms: _179  and  _181
REMARK   76  A    between atoms: _181  and  _182
REMARK   77  A    between atoms: _181  and  _184
REMARK   78  A    between atoms: _184  and  _185
REMARK   79  A    between atoms: _188  and  _190
REMARK   80  A    between atoms: _190  and  _191
REMARK   81  A    between atoms: _190  and  _193
REMARK   82  A    between atoms: _193  and  _194
REMARK   83  A    between atoms: _199  and  _200
REMARK   84  A    between atoms: _202  and  _204
REMARK   85  A    between atoms: _204  and  _205
REMARK   86  A    between atoms: _204  and  _207
REMARK   87  A    between atoms: _209  and  _211
REMARK   88  A    between atoms: _211  and  _212
REMARK   89  A    between atoms: _211  and  _214
REMARK   90  A    between atoms: _217  and  _219
REMARK   91  A    between atoms: _219  and  _220
REMARK   92  A    between atoms: _223  and  _225
REMARK   93  A    between atoms: _225  and  _226
REMARK   94  A    between atoms: _228  and  _230
REMARK   95  A    between atoms: _230  and  _231
REMARK   96  A    between atoms: _230  and  _233
REMARK   97  A    between atoms: _233  and  _234
REMARK   98  A    between atoms: _237  and  _239
REMARK   99  A    between atoms: _239  and  _240
REMARK  100  A    between atoms: _239  and  _242
REMARK  101  A    between atoms: _245  and  _247
REMARK  102  A    between atoms: _247  and  _248
REMARK  103  A    between atoms: _250  and  _252
REMARK  104  A    between atoms: _252  and  _253
REMARK  105  A    between atoms: _252  and  _255
REMARK  106  A    between atoms: _255  and  _256
REMARK  107  A    between atoms: _256  and  _257
REMARK  108  A    between atoms: _260  and  _262
REMARK  109  A    between atoms: _262  and  _263
REMARK  110  A    between atoms: _262  and  _265
REMARK  111  A    between atoms: _268  and  _270
REMARK  112  A    between atoms: _270  and  _271
REMARK  113  A    between atoms: _270  and  _273
REMARK  114  A    between atoms: _273  and  _274
REMARK  115  A    between atoms: _277  and  _279
REMARK  116  A    between atoms: _279  and  _280
REMARK  117  A    between atoms: _279  and  _282
REMARK  118  A    between atoms: _282  and  _283
REMARK  119  A    between atoms: _286  and  _288
REMARK  120  A    between atoms: _288  and  _289
REMARK  121  A    between atoms: _288  and  _291
REMARK  122  A    between atoms: _291  and  _292
REMARK  123  A    between atoms: _295  and  _297
REMARK  124  A    between atoms: _297  and  _298
REMARK  125  A    between atoms: _297  and  _300
REMARK  126  A    between atoms: _300  and  _301
REMARK  127  A    between atoms: _304  and  _306
REMARK  128  A    between atoms: _306  and  _307
REMARK  129  A    between atoms: _306  and  _309
REMARK  130  A    between atoms: _309  and  _310
REMARK  131  A    between atoms: _312  and  _314
REMARK  132  A    between atoms: _314  and  _315
REMARK  133  A    between atoms: _314  and  _317
REMARK  134  A    between atoms: _317  and  _318
REMARK  135  A    between atoms: _321  and  _323
REMARK  136  A    between atoms: _323  and  _324
REMARK  137  A    between atoms: _323  and  _326
REMARK  138  A    between atoms: _326  and  _327
REMARK  139  A    between atoms: _332  and  _333
REMARK  140  A    between atoms: _335  and  _337
REMARK  141  A    between atoms: _337  and  _338
REMARK  142  A    between atoms: _337  and  _340
REMARK  143  A    between atoms: _343  and  _345
REMARK  144  A    between atoms: _345  and  _346
REMARK  145  A    between atoms: _349  and  _351
REMARK  146  A    between atoms: _351  and  _352
REMARK  147  A    between atoms: _351  and  _354
REMARK  148  A    between atoms: _354  and  _355
REMARK  149  A    between atoms: _355  and  _356
REMARK  150  A    between atoms: _356  and  _357
REMARK  151  A    between atoms: _366  and  _368
REMARK  152  A    between atoms: _368  and  _369
REMARK  153  A    between atoms: _368  and  _371
REMARK  154  A    between atoms: _371  and  _372
REMARK  155  A    between atoms: _372  and  _373
REMARK  156  A    between atoms: _373  and  _374
REMARK  157  A    between atoms: _383  and  _385
REMARK  158  A    between atoms: _385  and  _386
REMARK  159  A    between atoms: _385  and  _388
REMARK  160  A    between atoms: _388  and  _389
REMARK  161  A    between atoms: _392  and  _394
REMARK  162  A    between atoms: _394  and  _395
REMARK  163  A    between atoms: _397  and  _399
REMARK  164  A    between atoms: _399  and  _400
REMARK  165  A    between atoms: _399  and  _402
REMARK  166  A    between atoms: _402  and  _403
REMARK  167  A    between atoms: _403  and  _404
REMARK  168  A    between atoms: _407  and  _409
REMARK  169  A    between atoms: _409  and  _410
REMARK  170  A    between atoms: _409  and  _412
REMARK  171  A    between atoms: _412  and  _413
REMARK  172  A    between atoms: _415  and  _417
REMARK  173  A    between atoms: _417  and  _418
REMARK  174  A    between atoms: _417  and  _420
REMARK  175  A    between atoms: _420  and  _421
REMARK  176  A    between atoms: _424  and  _426
REMARK  177  A    between atoms: _426  and  _427
REMARK  178  A    between atoms: _426  and  _429
REMARK  179  A    between atoms: _429  and  _430
REMARK  180  A    between atoms: _430  and  _431
REMARK  181  A    between atoms: _436  and  _438
REMARK  182  A    between atoms: _438  and  _439
REMARK  183  A    between atoms: _438  and  _441
REMARK  184  A    between atoms: _441  and  _442
REMARK  185  A    between atoms: _445  and  _447
REMARK  186  A    between atoms: _447  and  _448
REMARK  187  A    between atoms: _447  and  _450
REMARK  188  A    between atoms: _450  and  _451
REMARK  189  A    between atoms: _454  and  _456
REMARK  190  A    between atoms: _456  and  _457
REMARK  191  A    between atoms: _456  and  _459
REMARK  192  A    between atoms: _459  and  _460
REMARK  193  A    between atoms: _460  and  _461
REMARK  194  A    between atoms: _460  and  _462
REMARK  195  A    between atoms: _461  and  MG_705
REMARK  196  A    between atoms: _465  and  _467
REMARK  197  A    between atoms: _467  and  _468
REMARK  198  A    between atoms: _467  and  _470
REMARK  199  A    between atoms: _470  and  _471
REMARK  200  A    between atoms: _474  and  _476
REMARK  201  A    between atoms: _476  and  _477
REMARK  202  A    between atoms: _476  and  _479
REMARK  203  A    between atoms: _479  and  _480
REMARK  204  A    between atoms: _480  and  _481
REMARK  205  A    between atoms: _481  and  _482
REMARK  206  A    between atoms: _491  and  _493
REMARK  207  A    between atoms: _493  and  _494
REMARK  208  A    between atoms: _493  and  _496
REMARK  209  A    between atoms: _496  and  _497
REMARK  210  A    between atoms: _497  and  _499
REMARK  211  A    between atoms: _499  and  MG_705
REMARK  212  A    between atoms: _500  and  _502
REMARK  213  A    between atoms: _502  and  _503
REMARK  214  A    between atoms: _502  and  _505
REMARK  215  A    between atoms: _505  and  _506
REMARK  216  A    between atoms: _506  and  _507
REMARK  217  A    between atoms: _510  and  _512
REMARK  218  A    between atoms: _512  and  _513
REMARK  219  A    between atoms: _512  and  _515
REMARK  220  A    between atoms: _515  and  _516
REMARK  221  A    between atoms: _519  and  _521
REMARK  222  A    between atoms: _521  and  _522
REMARK  223  A    between atoms: _521  and  _524
REMARK  224  A    between atoms: _524  and  _525
REMARK  225  A    between atoms: _530  and  _532
REMARK  226  A    between atoms: _532  and  _533
REMARK  227  A    between atoms: _532  and  _535
REMARK  228  A    between atoms: _535  and  _536
REMARK  229  A    between atoms: _536  and  _537
REMARK  230  A    between atoms: _537  and  _538
REMARK  231  A    between atoms: _547  and  _549
REMARK  232  A    between atoms: _549  and  _550
REMARK  233  A    between atoms: _549  and  _552
REMARK  234  A    between atoms: _552  and  _553
REMARK  235  A    between atoms: _558  and  _559
REMARK  236  A    between atoms: _561  and  _563
REMARK  237  A    between atoms: _563  and  _564
REMARK  238  A    between atoms: _563  and  _566
REMARK  239  A    between atoms: _569  and  _571
REMARK  240  A    between atoms: _571  and  _572
REMARK  241  A    between atoms: _571  and  _574
REMARK  242  A    between atoms: _574  and  _575
REMARK  243  A    between atoms: _575  and  _576
REMARK  244  A    between atoms: _578  and  _580
REMARK  245  A    between atoms: _580  and  _581
REMARK  246  A    between atoms: _580  and  _583
REMARK  247  A    between atoms: _583  and  _584
REMARK  248  A    between atoms: _587  and  _589
REMARK  249  A    between atoms: _589  and  _590
REMARK  250  A    between atoms: _589  and  _592
REMARK  251  A    between atoms: _595  and  _597
REMARK  252  A    between atoms: _597  and  _598
REMARK  253  A    between atoms: _597  and  _600
REMARK  254  A    between atoms: _600  and  _601
REMARK  255  A    between atoms: _607  and  _609
REMARK  256  A    between atoms: _609  and  _610
REMARK  257  A    between atoms: _613  and  _615
REMARK  258  A    between atoms: _615  and  _616
REMARK  259  A    between atoms: _615  and  _618
REMARK  260  A    between atoms: _618  and  _619
REMARK  261  A    between atoms: _619  and  _620
REMARK  262  A    between atoms: _625  and  _627
REMARK  263  A    between atoms: _627  and  _628
REMARK  264  A    between atoms: _627  and  _630
REMARK  265  A    between atoms: _630  and  _631
REMARK  266  A    between atoms: _634  and  _636
REMARK  267  A    between atoms: _636  and  _637
REMARK  268  A    between atoms: _636  and  _639
REMARK  269  A    between atoms: _639  and  _640
REMARK  270  A    between atoms: _643  and  _645
REMARK  271  A    between atoms: _645  and  _646
REMARK  272  A    between atoms: _645  and  _648
REMARK  273  A    between atoms: _648  and  _649
REMARK  274  A    between atoms: _649  and  _650
REMARK  275  A    between atoms: _653  and  _655
REMARK  276  A    between atoms: _655  and  _656
REMARK  277  A    between atoms: _659  and  _661
REMARK  278  A    between atoms: _661  and  _662
REMARK  279  A    between atoms: _665  and  _667
REMARK  280  A    between atoms: _667  and  _668
REMARK  281  A    between atoms: _667  and  _670
REMARK  282  A    between atoms: _670  and  _671
REMARK  283  A    between atoms: _676  and  _677
REMARK  284  A    between atoms: _679  and  _681
REMARK  285  A    between atoms: _681  and  _682
REMARK  286  A    between atoms: _681  and  _684
REMARK  287  A    between atoms: _684  and  _685
REMARK  288  A    between atoms: _688  and  _690
REMARK  289  A    between atoms: _690  and  _691
REMARK  290  A    between atoms: _690  and  _693
REMARK  291  A    between atoms: _693  and  _694
REMARK  292  A    between atoms: _694  and  _695
REMARK  293  A    between atoms: _695  and  _696
REMARK                            x       y       z     vdW  Elec       q    Type
REMARK                         _______ _______ _______ _____ _____    ______ ____
ROOT
ATOM      1  O   HOH     1      31.517  54.315  35.657  0.00  0.00    +0.000 OA
ENDROOT
TORSDOF 0
REMARK  Name = ../refined-set-2016/2zcr/2zcr_pocket.pdb
REMARK  293 active torsions:
REMARK  status: ('A' for Active; 'I' for Inactive)
REMARK    1  A    between atoms: _1  and  _3
REMARK    2  A    between atoms: _3  and  _4
REMARK    3  A    between atoms: _3  and  _6
REMARK    4  A    between atoms: _6  and  _7
REMARK    5  A    between atoms: _7  and  _8
REMARK    6  A    between atoms: _10  and  _12
REMARK    7  A    between atoms: _12  and  _13
REMARK    8  A    between atoms: _12  and  _15
REMARK    9  A    between atoms: _15  and  _16
REMARK   10  A    between atoms: _21  and  _23
REMARK   11  A    between atoms: _23  and  _24
REMARK   12  A    between atoms: _23  and  _26
REMARK   13  A    between atoms: _26  and  _27
REMARK   14  A    between atoms: _29  and  _31
REMARK   15  A    between atoms: _31  and  _32
REMARK   16  A    between atoms: _31  and  _34
REMARK   17  A    between atoms: _34  and  _35
REMARK   18  A    between atoms: _35  and  _36
REMARK   19  A    between atoms: _36  and  _37
REMARK   20  A    between atoms: _37  and  _38
REMARK   21  A    between atoms: _42  and  _44
REMARK   22  A    between atoms: _44  and  _45
REMARK   23  A    between atoms: _44  and  _47
REMARK   24  A    between atoms: _47  and  _48
REMARK   25  A    between atoms: _50  and  _52
REMARK   26  A    between atoms: _52  and  _53
REMARK   27  A    between atoms: _52  and  _55
REMARK   28  A    between atoms: _55  and  _56
REMARK   29  A    between atoms: _62  and  _64
REMARK   30  A    between atoms: _64  and  _65
REMARK   31  A    between atoms: _68  and  _70
REMARK   32  A    between atoms: _70  and  _71
REMARK   33  A    between atoms: _70  and  _73
REMARK   34  A    between atoms: _73  and  _74
REMARK   35  A    between atoms: _80  and  _82
REMARK   36  A    between atoms: _82  and  _83
REMARK   37  A    between atoms: _82  and  _85
REMARK   38  A    between atoms: _85  and  _86
REMARK   39  A    between atoms: _89  and  _91
REMARK   40  A    between atoms: _91  and  _92
REMARK   41  A    between atoms: _91  and  _94
REMARK   42  A    between atoms: _97  and  _99
REMARK   43  A    between atoms: _99  and  _100
REMARK   44  A    between atoms: _99  and  _102
REMARK   45  A    between atoms: _102  and  _103
REMARK   46  A    between atoms: _106  and  _108
REMARK   47  A    between atoms: _108  and  _109
REMARK   48  A    between atoms: _108  and  _111
REMARK   49  A    between atoms: _111  and  _112
REMARK   50  A    between atoms: _117  and  _118
REMARK   51  A    between atoms: _120  and  _122
REMARK   52  A    between atoms: _122  and  _123
REMARK   53  A    between atoms: _122  and  _125
REMARK   54  A    between atoms: _127  and  _129
REMARK   55  A    between atoms: _129  and  _130
REMARK   56  A    between atoms: _129  and  _132
REMARK   57  A    between atoms: _132  and  _133
REMARK   58  A    between atoms: _133  and  _134
REMARK   59  A    between atoms: _134  and  _135
REMARK   60  A    between atoms: _144  and  _146
REMARK   61  A    between atoms: _146  and  _147
REMARK   62  A    between atoms: _146  and  _149
REMARK   63  A    between atoms: _149  and  _150
REMARK   64  A    between atoms: _153  and  _155
REMARK   65  A    between atoms: _155  and  _156
REMARK   66  A    between atoms: _155  and  _158
REMARK   67  A    between atoms: _158  and  _159
REMARK   68  A    between atoms: _162  and  _164
REMARK   69  A    between atoms: _164  and  _165
REMARK   70  A    between atoms: _164  and  _167
REMARK   71  A    between atoms: _167  and  _168
REMARK   72  A    between atoms: _171  and  _173
REMARK   73  A    between atoms: _173  and  _174
REMARK   74  A    between atoms: _173  and  _176
REMARK   75  A    between atoms: _179  and  _181
REMARK   76  A    between atoms: _181  and  _182
REMARK   77  A    between atoms: _181  and  _184
REMARK   78  A    between atoms: _184  and  _185
REMARK   79  A    between atoms: _188  and  _190
REMARK   80  A    between atoms: _190  and  _191
REMARK   81  A    between atoms: _190  and  _193
REMARK   82  A    between atoms: _193  and  _194
REMARK   83  A    between atoms: _199  and  _200
REMARK   84  A    between atoms: _202  and  _204
REMARK   85  A    between atoms: _204  and  _205
REMARK   86  A    between atoms: _204  and  _207
REMARK   87  A    between atoms: _209  and  _211
REMARK   88  A    between atoms: _211  and  _212
REMARK   89  A    between atoms: _211  and  _214
REMARK   90  A    between atoms: _217  and  _219
REMARK   91  A    between atoms: _219  and  _220
REMARK   92  A    between atoms: _223  and  _225
REMARK   93  A    between atoms: _225  and  _226
REMARK   94  A    between atoms: _228  and  _230
REMARK   95  A    between atoms: _230  and  _231
REMARK   96  A    between atoms: _230  and  _233
REMARK   97  A    between atoms: _233  and  _234
REMARK   98  A    between atoms: _237  and  _239
REMARK   99  A    between atoms: _239  and  _240
REMARK  100  A    between atoms: _239  and  _242
REMARK  101  A    between atoms: _245  and  _247
REMARK  102  A    between atoms: _247  and  _248
REMARK  103  A    between atoms: _250  and  _252
REMARK  104  A    between atoms: _252  and  _253
REMARK  105  A    between atoms: _252  and  _255
REMARK  106  A    between atoms: _255  and  _256
REMARK  107  A    between atoms: _256  and  _257
REMARK  108  A    between atoms: _260  and  _262
REMARK  109  A    between atoms: _262  and  _263
REMARK  110  A    between atoms: _262  and  _265
REMARK  111  A    between atoms: _268  and  _270
REMARK  112  A    between atoms: _270  and  _271
REMARK  113  A    between atoms: _270  and  _273
REMARK  114  A    between atoms: _273  and  _274
REMARK  115  A    between atoms: _277  and  _279
REMARK  116  A    between atoms: _279  and  _280
REMARK  117  A    between atoms: _279  and  _282
REMARK  118  A    between atoms: _282  and  _283
REMARK  119  A    between atoms: _286  and  _288
REMARK  120  A    between atoms: _288  and  _289
REMARK  121  A    between atoms: _288  and  _291
REMARK  122  A    between atoms: _291  and  _292
REMARK  123  A    between atoms: _295  and  _297
REMARK  124  A    between atoms: _297  and  _298
REMARK  125  A    between atoms: _297  and  _300
REMARK  126  A    between atoms: _300  and  _301
REMARK  127  A    between atoms: _304  and  _306
REMARK  128  A    between atoms: _306  and  _307
REMARK  129  A    between atoms: _306  and  _309
REMARK  130  A    between atoms: _309  and  _310
REMARK  131  A    between atoms: _312  and  _314
REMARK  132  A    between atoms: _314  and  _315
REMARK  133  A    between atoms: _314  and  _317
REMARK  134  A    between atoms: _317  and  _318
REMARK  135  A    between atoms: _321  and  _323
REMARK  136  A    between atoms: _323  and  _324
REMARK  137  A    between atoms: _323  and  _326
REMARK  138  A    between atoms: _326  and  _327
REMARK  139  A    between atoms: _332  and  _333
REMARK  140  A    between atoms: _335  and  _337
REMARK  141  A    between atoms: _337  and  _338
REMARK  142  A    between atoms: _337  and  _340
REMARK  143  A    between atoms: _343  and  _345
REMARK  144  A    between atoms: _345  and  _346
REMARK  145  A    between atoms: _349  and  _351
REMARK  146  A    between atoms: _351  and  _352
REMARK  147  A    between atoms: _351  and  _354
REMARK  148  A    between atoms: _354  and  _355
REMARK  149  A    between atoms: _355  and  _356
REMARK  150  A    between atoms: _356  and  _357
REMARK  151  A    between atoms: _366  and  _368
REMARK  152  A    between atoms: _368  and  _369
REMARK  153  A    between atoms: _368  and  _371
REMARK  154  A    between atoms: _371  and  _372
REMARK  155  A    between atoms: _372  and  _373
REMARK  156  A    between atoms: _373  and  _374
REMARK  157  A    between atoms: _383  and  _385
REMARK  158  A    between atoms: _385  and  _386
REMARK  159  A    between atoms: _385  and  _388
REMARK  160  A    between atoms: _388  and  _389
REMARK  161  A    between atoms: _392  and  _394
REMARK  162  A    between atoms: _394  and  _395
REMARK  163  A    between atoms: _397  and  _399
REMARK  164  A    between atoms: _399  and  _400
REMARK  165  A    between atoms: _399  and  _402
REMARK  166  A    between atoms: _402  and  _403
REMARK  167  A    between atoms: _403  and  _404
REMARK  168  A    between atoms: _407  and  _409
REMARK  169  A    between atoms: _409  and  _410
REMARK  170  A    between atoms: _409  and  _412
REMARK  171  A    between atoms: _412  and  _413
REMARK  172  A    between atoms: _415  and  _417
REMARK  173  A    between atoms: _417  and  _418
REMARK  174  A    between atoms: _417  and  _420
REMARK  175  A    between atoms: _420  and  _421
REMARK  176  A    between atoms: _424  and  _426
REMARK  177  A    between atoms: _426  and  _427
REMARK  178  A    between atoms: _426  and  _429
REMARK  179  A    between atoms: _429  and  _430
REMARK  180  A    between atoms: _430  and  _431
REMARK  181  A    between atoms: _436  and  _438
REMARK  182  A    between atoms: _438  and  _439
REMARK  183  A    between atoms: _438  and  _441
REMARK  184  A    between atoms: _441  and  _442
REMARK  185  A    between atoms: _445  and  _447
REMARK  186  A    between atoms: _447  and  _448
REMARK  187  A    between atoms: _447  and  _450
REMARK  188  A    between atoms: _450  and  _451
REMARK  189  A    between atoms: _454  and  _456
REMARK  190  A    between atoms: _456  and  _457
REMARK  191  A    between atoms: _456  and  _459
REMARK  192  A    between atoms: _459  and  _460
REMARK  193  A    between atoms: _460  and  _461
REMARK  194  A    between atoms: _460  and  _462
REMARK  195  A    between atoms: _461  and  MG_705
REMARK  196  A    between atoms: _465  and  _467
REMARK  197  A    between atoms: _467  and  _468
REMARK  198  A    between atoms: _467  and  _470
REMARK  199  A    between atoms: _470  and  _471
REMARK  200  A    between atoms: _474  and  _476
REMARK  201  A    between atoms: _476  and  _477
REMARK  202  A    between atoms: _476  and  _479
REMARK  203  A    between atoms: _479  and  _480
REMARK  204  A    between atoms: _480  and  _481
REMARK  205  A    between atoms: _481  and  _482
REMARK  206  A    between atoms: _491  and  _493
REMARK  207  A    between atoms: _493  and  _494
REMARK  208  A    between atoms: _493  and  _496
REMARK  209  A    between atoms: _496  and  _497
REMARK  210  A    between atoms: _497  and  _499
REMARK  211  A    between atoms: _499  and  MG_705
REMARK  212  A    between atoms: _500  and  _502
REMARK  213  A    between atoms: _502  and  _503
REMARK  214  A    between atoms: _502  and  _505
REMARK  215  A    between atoms: _505  and  _506
REMARK  216  A    between atoms: _506  and  _507
REMARK  217  A    between atoms: _510  and  _512
REMARK  218  A    between atoms: _512  and  _513
REMARK  219  A    between atoms: _512  and  _515
REMARK  220  A    between atoms: _515  and  _516
REMARK  221  A    between atoms: _519  and  _521
REMARK  222  A    between atoms: _521  and  _522
REMARK  223  A    between atoms: _521  and  _524
REMARK  224  A    between atoms: _524  and  _525
REMARK  225  A    between atoms: _530  and  _532
REMARK  226  A    between atoms: _532  and  _533
REMARK  227  A    between atoms: _532  and  _535
REMARK  228  A    between atoms: _535  and  _536
REMARK  229  A    between atoms: _536  and  _537
REMARK  230  A    between atoms: _537  and  _538
REMARK  231  A    between atoms: _547  and  _549
REMARK  232  A    between atoms: _549  and  _550
REMARK  233  A    between atoms: _549  and  _552
REMARK  234  A    between atoms: _552  and  _553
REMARK  235  A    between atoms: _558  and  _559
REMARK  236  A    between atoms: _561  and  _563
REMARK  237  A    between atoms: _563  and  _564
REMARK  238  A    between atoms: _563  and  _566
REMARK  239  A    between atoms: _569  and  _571
REMARK  240  A    between atoms: _571  and  _572
REMARK  241  A    between atoms: _571  and  _574
REMARK  242  A    between atoms: _574  and  _575
REMARK  243  A    between atoms: _575  and  _576
REMARK  244  A    between atoms: _578  and  _580
REMARK  245  A    between atoms: _580  and  _581
REMARK  246  A    between atoms: _580  and  _583
REMARK  247  A    between atoms: _583  and  _584
REMARK  248  A    between atoms: _587  and  _589
REMARK  249  A    between atoms: _589  and  _590
REMARK  250  A    between atoms: _589  and  _592
REMARK  251  A    between atoms: _595  and  _597
REMARK  252  A    between atoms: _597  and  _598
REMARK  253  A    between atoms: _597  and  _600
REMARK  254  A    between atoms: _600  and  _601
REMARK  255  A    between atoms: _607  and  _609
REMARK  256  A    between atoms: _609  and  _610
REMARK  257  A    between atoms: _613  and  _615
REMARK  258  A    between atoms: _615  and  _616
REMARK  259  A    between atoms: _615  and  _618
REMARK  260  A    between atoms: _618  and  _619
REMARK  261  A    between atoms: _619  and  _620
REMARK  262  A    between atoms: _625  and  _627
REMARK  263  A    between atoms: _627  and  _628
REMARK  264  A    between atoms: _627  and  _630
REMARK  265  A    between atoms: _630  and  _631
REMARK  266  A    between atoms: _634  and  _636
REMARK  267  A    between atoms: _636  and  _637
REMARK  268  A    between atoms: _636  and  _639
REMARK  269  A    between atoms: _639  and  _640
REMARK  270  A    between atoms: _643  and  _645
REMARK  271  A    between atoms: _645  and  _646
REMARK  272  A    between atoms: _645  and  _648
REMARK  273  A    between atoms: _648  and  _649
REMARK  274  A    between atoms: _649  and  _650
REMARK  275  A    between atoms: _653  and  _655
REMARK  276  A    between atoms: _655  and  _656
REMARK  277  A    between atoms: _659  and  _661
REMARK  278  A    between atoms: _661  and  _662
REMARK  279  A    between atoms: _665  and  _667
REMARK  280  A    between atoms: _667  and  _668
REMARK  281  A    between atoms: _667  and  _670
REMARK  282  A    between atoms: _670  and  _671
REMARK  283  A    between atoms: _676  and  _677
REMARK  284  A    between atoms: _679  and  _681
REMARK  285  A    between atoms: _681  and  _682
REMARK  286  A    between atoms: _681  and  _684
REMARK  287  A    between atoms: _684  and  _685
REMARK  288  A    between atoms: _688  and  _690
REMARK  289  A    between atoms: _690  and  _691
REMARK  290  A    between atoms: _690  and  _693
REMARK  291  A    between atoms: _693  and  _694
REMARK  292  A    between atoms: _694  and  _695
REMARK  293  A    between atoms: _695  and  _696
REMARK                            x       y       z     vdW  Elec       q    Type
REMARK                         _______ _______ _______ _____ _____    ______ ____
ROOT
ATOM      1  O   HOH     1      15.968  49.477  36.283  0.00  0.00    +0.000 OA
ENDROOT
TORSDOF 0
REMARK  Name = ../refined-set-2016/2zcr/2zcr_pocket.pdb
REMARK  293 active torsions:
REMARK  status: ('A' for Active; 'I' for Inactive)
REMARK    1  A    between atoms: _1  and  _3
REMARK    2  A    between atoms: _3  and  _4
REMARK    3  A    between atoms: _3  and  _6
REMARK    4  A    between atoms: _6  and  _7
REMARK    5  A    between atoms: _7  and  _8
REMARK    6  A    between atoms: _10  and  _12
REMARK    7  A    between atoms: _12  and  _13
REMARK    8  A    between atoms: _12  and  _15
REMARK    9  A    between atoms: _15  and  _16
REMARK   10  A    between atoms: _21  and  _23
REMARK   11  A    between atoms: _23  and  _24
REMARK   12  A    between atoms: _23  and  _26
REMARK   13  A    between atoms: _26  and  _27
REMARK   14  A    between atoms: _29  and  _31
REMARK   15  A    between atoms: _31  and  _32
REMARK   16  A    between atoms: _31  and  _34
REMARK   17  A    between atoms: _34  and  _35
REMARK   18  A    between atoms: _35  and  _36
REMARK   19  A    between atoms: _36  and  _37
REMARK   20  A    between atoms: _37  and  _38
REMARK   21  A    between atoms: _42  and  _44
REMARK   22  A    between atoms: _44  and  _45
REMARK   23  A    between atoms: _44  and  _47
REMARK   24  A    between atoms: _47  and  _48
REMARK   25  A    between atoms: _50  and  _52
REMARK   26  A    between atoms: _52  and  _53
REMARK   27  A    between atoms: _52  and  _55
REMARK   28  A    between atoms: _55  and  _56
REMARK   29  A    between atoms: _62  and  _64
REMARK   30  A    between atoms: _64  and  _65
REMARK   31  A    between atoms: _68  and  _70
REMARK   32  A    between atoms: _70  and  _71
REMARK   33  A    between atoms: _70  and  _73
REMARK   34  A    between atoms: _73  and  _74
REMARK   35  A    between atoms: _80  and  _82
REMARK   36  A    between atoms: _82  and  _83
REMARK   37  A    between atoms: _82  and  _85
REMARK   38  A    between atoms: _85  and  _86
REMARK   39  A    between atoms: _89  and  _91
REMARK   40  A    between atoms: _91  and  _92
REMARK   41  A    between atoms: _91  and  _94
REMARK   42  A    between atoms: _97  and  _99
REMARK   43  A    between atoms: _99  and  _100
REMARK   44  A    between atoms: _99  and  _102
REMARK   45  A    between atoms: _102  and  _103
REMARK   46  A    between atoms: _106  and  _108
REMARK   47  A    between atoms: _108  and  _109
REMARK   48  A    between atoms: _108  and  _111
REMARK   49  A    between atoms: _111  and  _112
REMARK   50  A    between atoms: _117  and  _118
REMARK   51  A    between atoms: _120  and  _122
REMARK   52  A    between atoms: _122  and  _123
REMARK   53  A    between atoms: _122  and  _125
REMARK   54  A    between atoms: _127  and  _129
REMARK   55  A    between atoms: _129  and  _130
REMARK   56  A    between atoms: _129  and  _132
REMARK   57  A    between atoms: _132  and  _133
REMARK   58  A    between atoms: _133  and  _134
REMARK   59  A    between atoms: _134  and  _135
REMARK   60  A    between atoms: _144  and  _146
REMARK   61  A    between atoms: _146  and  _147
REMARK   62  A    between atoms: _146  and  _149
REMARK   63  A    between atoms: _149  and  _150
REMARK   64  A    between atoms: _153  and  _155
REMARK   65  A    between atoms: _155  and  _156
REMARK   66  A    between atoms: _155  and  _158
REMARK   67  A    between atoms: _158  and  _159
REMARK   68  A    between atoms: _162  and  _164
REMARK   69  A    between atoms: _164  and  _165
REMARK   70  A    between atoms: _164  and  _167
REMARK   71  A    between atoms: _167  and  _168
REMARK   72  A    between atoms: _171  and  _173
REMARK   73  A    between atoms: _173  and  _174
REMARK   74  A    between atoms: _173  and  _176
REMARK   75  A    between atoms: _179  and  _181
REMARK   76  A    between atoms: _181  and  _182
REMARK   77  A    between atoms: _181  and  _184
REMARK   78  A    between atoms: _184  and  _185
REMARK   79  A    between atoms: _188  and  _190
REMARK   80  A    between atoms: _190  and  _191
REMARK   81  A    between atoms: _190  and  _193
REMARK   82  A    between atoms: _193  and  _194
REMARK   83  A    between atoms: _199  and  _200
REMARK   84  A    between atoms: _202  and  _204
REMARK   85  A    between atoms: _204  and  _205
REMARK   86  A    between atoms: _204  and  _207
REMARK   87  A    between atoms: _209  and  _211
REMARK   88  A    between atoms: _211  and  _212
REMARK   89  A    between atoms: _211  and  _214
REMARK   90  A    between atoms: _217  and  _219
REMARK   91  A    between atoms: _219  and  _220
REMARK   92  A    between atoms: _223  and  _225
REMARK   93  A    between atoms: _225  and  _226
REMARK   94  A    between atoms: _228  and  _230
REMARK   95  A    between atoms: _230  and  _231
REMARK   96  A    between atoms: _230  and  _233
REMARK   97  A    between atoms: _233  and  _234
REMARK   98  A    between atoms: _237  and  _239
REMARK   99  A    between atoms: _239  and  _240
REMARK  100  A    between atoms: _239  and  _242
REMARK  101  A    between atoms: _245  and  _247
REMARK  102  A    between atoms: _247  and  _248
REMARK  103  A    between atoms: _250  and  _252
REMARK  104  A    between atoms: _252  and  _253
REMARK  105  A    between atoms: _252  and  _255
REMARK  106  A    between atoms: _255  and  _256
REMARK  107  A    between atoms: _256  and  _257
REMARK  108  A    between atoms: _260  and  _262
REMARK  109  A    between atoms: _262  and  _263
REMARK  110  A    between atoms: _262  and  _265
REMARK  111  A    between atoms: _268  and  _270
REMARK  112  A    between atoms: _270  and  _271
REMARK  113  A    between atoms: _270  and  _273
REMARK  114  A    between atoms: _273  and  _274
REMARK  115  A    between atoms: _277  and  _279
REMARK  116  A    between atoms: _279  and  _280
REMARK  117  A    between atoms: _279  and  _282
REMARK  118  A    between atoms: _282  and  _283
REMARK  119  A    between atoms: _286  and  _288
REMARK  120  A    between atoms: _288  and  _289
REMARK  121  A    between atoms: _288  and  _291
REMARK  122  A    between atoms: _291  and  _292
REMARK  123  A    between atoms: _295  and  _297
REMARK  124  A    between atoms: _297  and  _298
REMARK  125  A    between atoms: _297  and  _300
REMARK  126  A    between atoms: _300  and  _301
REMARK  127  A    between atoms: _304  and  _306
REMARK  128  A    between atoms: _306  and  _307
REMARK  129  A    between atoms: _306  and  _309
REMARK  130  A    between atoms: _309  and  _310
REMARK  131  A    between atoms: _312  and  _314
REMARK  132  A    between atoms: _314  and  _315
REMARK  133  A    between atoms: _314  and  _317
REMARK  134  A    between atoms: _317  and  _318
REMARK  135  A    between atoms: _321  and  _323
REMARK  136  A    between atoms: _323  and  _324
REMARK  137  A    between atoms: _323  and  _326
REMARK  138  A    between atoms: _326  and  _327
REMARK  139  A    between atoms: _332  and  _333
REMARK  140  A    between atoms: _335  and  _337
REMARK  141  A    between atoms: _337  and  _338
REMARK  142  A    between atoms: _337  and  _340
REMARK  143  A    between atoms: _343  and  _345
REMARK  144  A    between atoms: _345  and  _346
REMARK  145  A    between atoms: _349  and  _351
REMARK  146  A    between atoms: _351  and  _352
REMARK  147  A    between atoms: _351  and  _354
REMARK  148  A    between atoms: _354  and  _355
REMARK  149  A    between atoms: _355  and  _356
REMARK  150  A    between atoms: _356  and  _357
REMARK  151  A    between atoms: _366  and  _368
REMARK  152  A    between atoms: _368  and  _369
REMARK  153  A    between atoms: _368  and  _371
REMARK  154  A    between atoms: _371  and  _372
REMARK  155  A    between atoms: _372  and  _373
REMARK  156  A    between atoms: _373  and  _374
REMARK  157  A    between atoms: _383  and  _385
REMARK  158  A    between atoms: _385  and  _386
REMARK  159  A    between atoms: _385  and  _388
REMARK  160  A    between atoms: _388  and  _389
REMARK  161  A    between atoms: _392  and  _394
REMARK  162  A    between atoms: _394  and  _395
REMARK  163  A    between atoms: _397  and  _399
REMARK  164  A    between atoms: _399  and  _400
REMARK  165  A    between atoms: _399  and  _402
REMARK  166  A    between atoms: _402  and  _403
REMARK  167  A    between atoms: _403  and  _404
REMARK  168  A    between atoms: _407  and  _409
REMARK  169  A    between atoms: _409  and  _410
REMARK  170  A    between atoms: _409  and  _412
REMARK  171  A    between atoms: _412  and  _413
REMARK  172  A    between atoms: _415  and  _417
REMARK  173  A    between atoms: _417  and  _418
REMARK  174  A    between atoms: _417  and  _420
REMARK  175  A    between atoms: _420  and  _421
REMARK  176  A    between atoms: _424  and  _426
REMARK  177  A    between atoms: _426  and  _427
REMARK  178  A    between atoms: _426  and  _429
REMARK  179  A    between atoms: _429  and  _430
REMARK  180  A    between atoms: _430  and  _431
REMARK  181  A    between atoms: _436  and  _438
REMARK  182  A    between atoms: _438  and  _439
REMARK  183  A    between atoms: _438  and  _441
REMARK  184  A    between atoms: _441  and  _442
REMARK  185  A    between atoms: _445  and  _447
REMARK  186  A    between atoms: _447  and  _448
REMARK  187  A    between atoms: _447  and  _450
REMARK  188  A    between atoms: _450  and  _451
REMARK  189  A    between atoms: _454  and  _456
REMARK  190  A    between atoms: _456  and  _457
REMARK  191  A    between atoms: _456  and  _459
REMARK  192  A    between atoms: _459  and  _460
REMARK  193  A    between atoms: _460  and  _461
REMARK  194  A    between atoms: _460  and  _462
REMARK  195  A    between atoms: _461  and  MG_705
REMARK  196  A    between atoms: _465  and  _467
REMARK  197  A    between atoms: _467  and  _468
REMARK  198  A    between atoms: _467  and  _470
REMARK  199  A    between atoms: _470  and  _471
REMARK  200  A    between atoms: _474  and  _476
REMARK  201  A    between atoms: _476  and  _477
REMARK  202  A    between atoms: _476  and  _479
REMARK  203  A    between atoms: _479  and  _480
REMARK  204  A    between atoms: _480  and  _481
REMARK  205  A    between atoms: _481  and  _482
REMARK  206  A    between atoms: _491  and  _493
REMARK  207  A    between atoms: _493  and  _494
REMARK  208  A    between atoms: _493  and  _496
REMARK  209  A    between atoms: _496  and  _497
REMARK  210  A    between atoms: _497  and  _499
REMARK  211  A    between atoms: _499  and  MG_705
REMARK  212  A    between atoms: _500  and  _502
REMARK  213  A    between atoms: _502  and  _503
REMARK  214  A    between atoms: _502  and  _505
REMARK  215  A    between atoms: _505  and  _506
REMARK  216  A    between atoms: _506  and  _507
REMARK  217  A    between atoms: _510  and  _512
REMARK  218  A    between atoms: _512  and  _513
REMARK  219  A    between atoms: _512  and  _515
REMARK  220  A    between atoms: _515  and  _516
REMARK  221  A    between atoms: _519  and  _521
REMARK  222  A    between atoms: _521  and  _522
REMARK  223  A    between atoms: _521  and  _524
REMARK  224  A    between atoms: _524  and  _525
REMARK  225  A    between atoms: _530  and  _532
REMARK  226  A    between atoms: _532  and  _533
REMARK  227  A    between atoms: _532  and  _535
REMARK  228  A    between atoms: _535  and  _536
REMARK  229  A    between atoms: _536  and  _537
REMARK  230  A    between atoms: _537  and  _538
REMARK  231  A    between atoms: _547  and  _549
REMARK  232  A    between atoms: _549  and  _550
REMARK  233  A    between atoms: _549  and  _552
REMARK  234  A    between atoms: _552  and  _553
REMARK  235  A    between atoms: _558  and  _559
REMARK  236  A    between atoms: _561  and  _563
REMARK  237  A    between atoms: _563  and  _564
REMARK  238  A    between atoms: _563  and  _566
REMARK  239  A    between atoms: _569  and  _571
REMARK  240  A    between atoms: _571  and  _572
REMARK  241  A    between atoms: _571  and  _574
REMARK  242  A    between atoms: _574  and  _575
REMARK  243  A    between atoms: _575  and  _576
REMARK  244  A    between atoms: _578  and  _580
REMARK  245  A    between atoms: _580  and  _581
REMARK  246  A    between atoms: _580  and  _583
REMARK  247  A    between atoms: _583  and  _584
REMARK  248  A    between atoms: _587  and  _589
REMARK  249  A    between atoms: _589  and  _590
REMARK  250  A    between atoms: _589  and  _592
REMARK  251  A    between atoms: _595  and  _597
REMARK  252  A    between atoms: _597  and  _598
REMARK  253  A    between atoms: _597  and  _600
REMARK  254  A    between atoms: _600  and  _601
REMARK  255  A    between atoms: _607  and  _609
REMARK  256  A    between atoms: _609  and  _610
REMARK  257  A    between atoms: _613  and  _615
REMARK  258  A    between atoms: _615  and  _616
REMARK  259  A    between atoms: _615  and  _618
REMARK  260  A    between atoms: _618  and  _619
REMARK  261  A    between atoms: _619  and  _620
REMARK  262  A    between atoms: _625  and  _627
REMARK  263  A    between atoms: _627  and  _628
REMARK  264  A    between atoms: _627  and  _630
REMARK  265  A    between atoms: _630  and  _631
REMARK  266  A    between atoms: _634  and  _636
REMARK  267  A    between atoms: _636  and  _637
REMARK  268  A    between atoms: _636  and  _639
REMARK  269  A    between atoms: _639  and  _640
REMARK  270  A    between atoms: _643  and  _645
REMARK  271  A    between atoms: _645  and  _646
REMARK  272  A    between atoms: _645  and  _648
REMARK  273  A    between atoms: _648  and  _649
REMARK  274  A    between atoms: _649  and  _650
REMARK  275  A    between atoms: _653  and  _655
REMARK  276  A    between atoms: _655  and  _656
REMARK  277  A    between atoms: _659  and  _661
REMARK  278  A    between atoms: _661  and  _662
REMARK  279  A    between atoms: _665  and  _667
REMARK  280  A    between atoms: _667  and  _668
REMARK  281  A    between atoms: _667  and  _670
REMARK  282  A    between atoms: _670  and  _671
REMARK  283  A    between atoms: _676  and  _677
REMARK  284  A    between atoms: _679  and  _681
REMARK  285  A    between atoms: _681  and  _682
REMARK  286  A    between atoms: _681  and  _684
REMARK  287  A    between atoms: _684  and  _685
REMARK  288  A    between atoms: _688  and  _690
REMARK  289  A    between atoms: _690  and  _691
REMARK  290  A    between atoms: _690  and  _693
REMARK  291  A    between atoms: _693  and  _694
REMARK  292  A    between atoms: _694  and  _695
REMARK  293  A    between atoms: _695  and  _696
REMARK                            x       y       z     vdW  Elec       q    Type
REMARK                         _______ _______ _______ _____ _____    ______ ____
ROOT
ATOM      1  O   HOH     1      25.544  55.968  41.581  0.00  0.00    +0.000 OA
ENDROOT
TORSDOF 0
REMARK  Name = ../refined-set-2016/2zcr/2zcr_pocket.pdb
REMARK  293 active torsions:
REMARK  status: ('A' for Active; 'I' for Inactive)
REMARK    1  A    between atoms: _1  and  _3
REMARK    2  A    between atoms: _3  and  _4
REMARK    3  A    between atoms: _3  and  _6
REMARK    4  A    between atoms: _6  and  _7
REMARK    5  A    between atoms: _7  and  _8
REMARK    6  A    between atoms: _10  and  _12
REMARK    7  A    between atoms: _12  and  _13
REMARK    8  A    between atoms: _12  and  _15
REMARK    9  A    between atoms: _15  and  _16
REMARK   10  A    between atoms: _21  and  _23
REMARK   11  A    between atoms: _23  and  _24
REMARK   12  A    between atoms: _23  and  _26
REMARK   13  A    between atoms: _26  and  _27
REMARK   14  A    between atoms: _29  and  _31
REMARK   15  A    between atoms: _31  and  _32
REMARK   16  A    between atoms: _31  and  _34
REMARK   17  A    between atoms: _34  and  _35
REMARK   18  A    between atoms: _35  and  _36
REMARK   19  A    between atoms: _36  and  _37
REMARK   20  A    between atoms: _37  and  _38
REMARK   21  A    between atoms: _42  and  _44
REMARK   22  A    between atoms: _44  and  _45
REMARK   23  A    between atoms: _44  and  _47
REMARK   24  A    between atoms: _47  and  _48
REMARK   25  A    between atoms: _50  and  _52
REMARK   26  A    between atoms: _52  and  _53
REMARK   27  A    between atoms: _52  and  _55
REMARK   28  A    between atoms: _55  and  _56
REMARK   29  A    between atoms: _62  and  _64
REMARK   30  A    between atoms: _64  and  _65
REMARK   31  A    between atoms: _68  and  _70
REMARK   32  A    between atoms: _70  and  _71
REMARK   33  A    between atoms: _70  and  _73
REMARK   34  A    between atoms: _73  and  _74
REMARK   35  A    between atoms: _80  and  _82
REMARK   36  A    between atoms: _82  and  _83
REMARK   37  A    between atoms: _82  and  _85
REMARK   38  A    between atoms: _85  and  _86
REMARK   39  A    between atoms: _89  and  _91
REMARK   40  A    between atoms: _91  and  _92
REMARK   41  A    between atoms: _91  and  _94
REMARK   42  A    between atoms: _97  and  _99
REMARK   43  A    between atoms: _99  and  _100
REMARK   44  A    between atoms: _99  and  _102
REMARK   45  A    between atoms: _102  and  _103
REMARK   46  A    between atoms: _106  and  _108
REMARK   47  A    between atoms: _108  and  _109
REMARK   48  A    between atoms: _108  and  _111
REMARK   49  A    between atoms: _111  and  _112
REMARK   50  A    between atoms: _117  and  _118
REMARK   51  A    between atoms: _120  and  _122
REMARK   52  A    between atoms: _122  and  _123
REMARK   53  A    between atoms: _122  and  _125
REMARK   54  A    between atoms: _127  and  _129
REMARK   55  A    between atoms: _129  and  _130
REMARK   56  A    between atoms: _129  and  _132
REMARK   57  A    between atoms: _132  and  _133
REMARK   58  A    between atoms: _133  and  _134
REMARK   59  A    between atoms: _134  and  _135
REMARK   60  A    between atoms: _144  and  _146
REMARK   61  A    between atoms: _146  and  _147
REMARK   62  A    between atoms: _146  and  _149
REMARK   63  A    between atoms: _149  and  _150
REMARK   64  A    between atoms: _153  and  _155
REMARK   65  A    between atoms: _155  and  _156
REMARK   66  A    between atoms: _155  and  _158
REMARK   67  A    between atoms: _158  and  _159
REMARK   68  A    between atoms: _162  and  _164
REMARK   69  A    between atoms: _164  and  _165
REMARK   70  A    between atoms: _164  and  _167
REMARK   71  A    between atoms: _167  and  _168
REMARK   72  A    between atoms: _171  and  _173
REMARK   73  A    between atoms: _173  and  _174
REMARK   74  A    between atoms: _173  and  _176
REMARK   75  A    between atoms: _179  and  _181
REMARK   76  A    between atoms: _181  and  _182
REMARK   77  A    between atoms: _181  and  _184
REMARK   78  A    between atoms: _184  and  _185
REMARK   79  A    between atoms: _188  and  _190
REMARK   80  A    between atoms: _190  and  _191
REMARK   81  A    between atoms: _190  and  _193
REMARK   82  A    between atoms: _193  and  _194
REMARK   83  A    between atoms: _199  and  _200
REMARK   84  A    between atoms: _202  and  _204
REMARK   85  A    between atoms: _204  and  _205
REMARK   86  A    between atoms: _204  and  _207
REMARK   87  A    between atoms: _209  and  _211
REMARK   88  A    between atoms: _211  and  _212
REMARK   89  A    between atoms: _211  and  _214
REMARK   90  A    between atoms: _217  and  _219
REMARK   91  A    between atoms: _219  and  _220
REMARK   92  A    between atoms: _223  and  _225
REMARK   93  A    between atoms: _225  and  _226
REMARK   94  A    between atoms: _228  and  _230
REMARK   95  A    between atoms: _230  and  _231
REMARK   96  A    between atoms: _230  and  _233
REMARK   97  A    between atoms: _233  and  _234
REMARK   98  A    between atoms: _237  and  _239
REMARK   99  A    between atoms: _239  and  _240
REMARK  100  A    between atoms: _239  and  _242
REMARK  101  A    between atoms: _245  and  _247
REMARK  102  A    between atoms: _247  and  _248
REMARK  103  A    between atoms: _250  and  _252
REMARK  104  A    between atoms: _252  and  _253
REMARK  105  A    between atoms: _252  and  _255
REMARK  106  A    between atoms: _255  and  _256
REMARK  107  A    between atoms: _256  and  _257
REMARK  108  A    between atoms: _260  and  _262
REMARK  109  A    between atoms: _262  and  _263
REMARK  110  A    between atoms: _262  and  _265
REMARK  111  A    between atoms: _268  and  _270
REMARK  112  A    between atoms: _270  and  _271
REMARK  113  A    between atoms: _270  and  _273
REMARK  114  A    between atoms: _273  and  _274
REMARK  115  A    between atoms: _277  and  _279
REMARK  116  A    between atoms: _279  and  _280
REMARK  117  A    between atoms: _279  and  _282
REMARK  118  A    between atoms: _282  and  _283
REMARK  119  A    between atoms: _286  and  _288
REMARK  120  A    between atoms: _288  and  _289
REMARK  121  A    between atoms: _288  and  _291
REMARK  122  A    between atoms: _291  and  _292
REMARK  123  A    between atoms: _295  and  _297
REMARK  124  A    between atoms: _297  and  _298
REMARK  125  A    between atoms: _297  and  _300
REMARK  126  A    between atoms: _300  and  _301
REMARK  127  A    between atoms: _304  and  _306
REMARK  128  A    between atoms: _306  and  _307
REMARK  129  A    between atoms: _306  and  _309
REMARK  130  A    between atoms: _309  and  _310
REMARK  131  A    between atoms: _312  and  _314
REMARK  132  A    between atoms: _314  and  _315
REMARK  133  A    between atoms: _314  and  _317
REMARK  134  A    between atoms: _317  and  _318
REMARK  135  A    between atoms: _321  and  _323
REMARK  136  A    between atoms: _323  and  _324
REMARK  137  A    between atoms: _323  and  _326
REMARK  138  A    between atoms: _326  and  _327
REMARK  139  A    between atoms: _332  and  _333
REMARK  140  A    between atoms: _335  and  _337
REMARK  141  A    between atoms: _337  and  _338
REMARK  142  A    between atoms: _337  and  _340
REMARK  143  A    between atoms: _343  and  _345
REMARK  144  A    between atoms: _345  and  _346
REMARK  145  A    between atoms: _349  and  _351
REMARK  146  A    between atoms: _351  and  _352
REMARK  147  A    between atoms: _351  and  _354
REMARK  148  A    between atoms: _354  and  _355
REMARK  149  A    between atoms: _355  and  _356
REMARK  150  A    between atoms: _356  and  _357
REMARK  151  A    between atoms: _366  and  _368
REMARK  152  A    between atoms: _368  and  _369
REMARK  153  A    between atoms: _368  and  _371
REMARK  154  A    between atoms: _371  and  _372
REMARK  155  A    between atoms: _372  and  _373
REMARK  156  A    between atoms: _373  and  _374
REMARK  157  A    between atoms: _383  and  _385
REMARK  158  A    between atoms: _385  and  _386
REMARK  159  A    between atoms: _385  and  _388
REMARK  160  A    between atoms: _388  and  _389
REMARK  161  A    between atoms: _392  and  _394
REMARK  162  A    between atoms: _394  and  _395
REMARK  163  A    between atoms: _397  and  _399
REMARK  164  A    between atoms: _399  and  _400
REMARK  165  A    between atoms: _399  and  _402
REMARK  166  A    between atoms: _402  and  _403
REMARK  167  A    between atoms: _403  and  _404
REMARK  168  A    between atoms: _407  and  _409
REMARK  169  A    between atoms: _409  and  _410
REMARK  170  A    between atoms: _409  and  _412
REMARK  171  A    between atoms: _412  and  _413
REMARK  172  A    between atoms: _415  and  _417
REMARK  173  A    between atoms: _417  and  _418
REMARK  174  A    between atoms: _417  and  _420
REMARK  175  A    between atoms: _420  and  _421
REMARK  176  A    between atoms: _424  and  _426
REMARK  177  A    between atoms: _426  and  _427
REMARK  178  A    between atoms: _426  and  _429
REMARK  179  A    between atoms: _429  and  _430
REMARK  180  A    between atoms: _430  and  _431
REMARK  181  A    between atoms: _436  and  _438
REMARK  182  A    between atoms: _438  and  _439
REMARK  183  A    between atoms: _438  and  _441
REMARK  184  A    between atoms: _441  and  _442
REMARK  185  A    between atoms: _445  and  _447
REMARK  186  A    between atoms: _447  and  _448
REMARK  187  A    between atoms: _447  and  _450
REMARK  188  A    between atoms: _450  and  _451
REMARK  189  A    between atoms: _454  and  _456
REMARK  190  A    between atoms: _456  and  _457
REMARK  191  A    between atoms: _456  and  _459
REMARK  192  A    between atoms: _459  and  _460
REMARK  193  A    between atoms: _460  and  _461
REMARK  194  A    between atoms: _460  and  _462
REMARK  195  A    between atoms: _461  and  MG_705
REMARK  196  A    between atoms: _465  and  _467
REMARK  197  A    between atoms: _467  and  _468
REMARK  198  A    between atoms: _467  and  _470
REMARK  199  A    between atoms: _470  and  _471
REMARK  200  A    between atoms: _474  and  _476
REMARK  201  A    between atoms: _476  and  _477
REMARK  202  A    between atoms: _476  and  _479
REMARK  203  A    between atoms: _479  and  _480
REMARK  204  A    between atoms: _480  and  _481
REMARK  205  A    between atoms: _481  and  _482
REMARK  206  A    between atoms: _491  and  _493
REMARK  207  A    between atoms: _493  and  _494
REMARK  208  A    between atoms: _493  and  _496
REMARK  209  A    between atoms: _496  and  _497
REMARK  210  A    between atoms: _497  and  _499
REMARK  211  A    between atoms: _499  and  MG_705
REMARK  212  A    between atoms: _500  and  _502
REMARK  213  A    between atoms: _502  and  _503
REMARK  214  A    between atoms: _502  and  _505
REMARK  215  A    between atoms: _505  and  _506
REMARK  216  A    between atoms: _506  and  _507
REMARK  217  A    between atoms: _510  and  _512
REMARK  218  A    between atoms: _512  and  _513
REMARK  219  A    between atoms: _512  and  _515
REMARK  220  A    between atoms: _515  and  _516
REMARK  221  A    between atoms: _519  and  _521
REMARK  222  A    between atoms: _521  and  _522
REMARK  223  A    between atoms: _521  and  _524
REMARK  224  A    between atoms: _524  and  _525
REMARK  225  A    between atoms: _530  and  _532
REMARK  226  A    between atoms: _532  and  _533
REMARK  227  A    between atoms: _532  and  _535
REMARK  228  A    between atoms: _535  and  _536
REMARK  229  A    between atoms: _536  and  _537
REMARK  230  A    between atoms: _537  and  _538
REMARK  231  A    between atoms: _547  and  _549
REMARK  232  A    between atoms: _549  and  _550
REMARK  233  A    between atoms: _549  and  _552
REMARK  234  A    between atoms: _552  and  _553
REMARK  235  A    between atoms: _558  and  _559
REMARK  236  A    between atoms: _561  and  _563
REMARK  237  A    between atoms: _563  and  _564
REMARK  238  A    between atoms: _563  and  _566
REMARK  239  A    between atoms: _569  and  _571
REMARK  240  A    between atoms: _571  and  _572
REMARK  241  A    between atoms: _571  and  _574
REMARK  242  A    between atoms: _574  and  _575
REMARK  243  A    between atoms: _575  and  _576
REMARK  244  A    between atoms: _578  and  _580
REMARK  245  A    between atoms: _580  and  _581
REMARK  246  A    between atoms: _580  and  _583
REMARK  247  A    between atoms: _583  and  _584
REMARK  248  A    between atoms: _587  and  _589
REMARK  249  A    between atoms: _589  and  _590
REMARK  250  A    between atoms: _589  and  _592
REMARK  251  A    between atoms: _595  and  _597
REMARK  252  A    between atoms: _597  and  _598
REMARK  253  A    between atoms: _597  and  _600
REMARK  254  A    between atoms: _600  and  _601
REMARK  255  A    between atoms: _607  and  _609
REMARK  256  A    between atoms: _609  and  _610
REMARK  257  A    between atoms: _613  and  _615
REMARK  258  A    between atoms: _615  and  _616
REMARK  259  A    between atoms: _615  and  _618
REMARK  260  A    between atoms: _618  and  _619
REMARK  261  A    between atoms: _619  and  _620
REMARK  262  A    between atoms: _625  and  _627
REMARK  263  A    between atoms: _627  and  _628
REMARK  264  A    between atoms: _627  and  _630
REMARK  265  A    between atoms: _630  and  _631
REMARK  266  A    between atoms: _634  and  _636
REMARK  267  A    between atoms: _636  and  _637
REMARK  268  A    between atoms: _636  and  _639
REMARK  269  A    between atoms: _639  and  _640
REMARK  270  A    between atoms: _643  and  _645
REMARK  271  A    between atoms: _645  and  _646
REMARK  272  A    between atoms: _645  and  _648
REMARK  273  A    between atoms: _648  and  _649
REMARK  274  A    between atoms: _649  and  _650
REMARK  275  A    between atoms: _653  and  _655
REMARK  276  A    between atoms: _655  and  _656
REMARK  277  A    between atoms: _659  and  _661
REMARK  278  A    between atoms: _661  and  _662
REMARK  279  A    between atoms: _665  and  _667
REMARK  280  A    between atoms: _667  and  _668
REMARK  281  A    between atoms: _667  and  _670
REMARK  282  A    between atoms: _670  and  _671
REMARK  283  A    between atoms: _676  and  _677
REMARK  284  A    between atoms: _679  and  _681
REMARK  285  A    between atoms: _681  and  _682
REMARK  286  A    between atoms: _681  and  _684
REMARK  287  A    between atoms: _684  and  _685
REMARK  288  A    between atoms: _688  and  _690
REMARK  289  A    between atoms: _690  and  _691
REMARK  290  A    between atoms: _690  and  _693
REMARK  291  A    between atoms: _693  and  _694
REMARK  292  A    between atoms: _694  and  _695
REMARK  293  A    between atoms: _695  and  _696
REMARK                            x       y       z     vdW  Elec       q    Type
REMARK                         _______ _______ _______ _____ _____    ______ ____
ROOT
ATOM      1  O   HOH     1      27.488  54.463  42.872  0.00  0.00    +0.000 OA
ENDROOT
TORSDOF 0
REMARK  Name = ../refined-set-2016/2zcr/2zcr_pocket.pdb
REMARK  293 active torsions:
REMARK  status: ('A' for Active; 'I' for Inactive)
REMARK    1  A    between atoms: _1  and  _3
REMARK    2  A    between atoms: _3  and  _4
REMARK    3  A    between atoms: _3  and  _6
REMARK    4  A    between atoms: _6  and  _7
REMARK    5  A    between atoms: _7  and  _8
REMARK    6  A    between atoms: _10  and  _12
REMARK    7  A    between atoms: _12  and  _13
REMARK    8  A    between atoms: _12  and  _15
REMARK    9  A    between atoms: _15  and  _16
REMARK   10  A    between atoms: _21  and  _23
REMARK   11  A    between atoms: _23  and  _24
REMARK   12  A    between atoms: _23  and  _26
REMARK   13  A    between atoms: _26  and  _27
REMARK   14  A    between atoms: _29  and  _31
REMARK   15  A    between atoms: _31  and  _32
REMARK   16  A    between atoms: _31  and  _34
REMARK   17  A    between atoms: _34  and  _35
REMARK   18  A    between atoms: _35  and  _36
REMARK   19  A    between atoms: _36  and  _37
REMARK   20  A    between atoms: _37  and  _38
REMARK   21  A    between atoms: _42  and  _44
REMARK   22  A    between atoms: _44  and  _45
REMARK   23  A    between atoms: _44  and  _47
REMARK   24  A    between atoms: _47  and  _48
REMARK   25  A    between atoms: _50  and  _52
REMARK   26  A    between atoms: _52  and  _53
REMARK   27  A    between atoms: _52  and  _55
REMARK   28  A    between atoms: _55  and  _56
REMARK   29  A    between atoms: _62  and  _64
REMARK   30  A    between atoms: _64  and  _65
REMARK   31  A    between atoms: _68  and  _70
REMARK   32  A    between atoms: _70  and  _71
REMARK   33  A    between atoms: _70  and  _73
REMARK   34  A    between atoms: _73  and  _74
REMARK   35  A    between atoms: _80  and  _82
REMARK   36  A    between atoms: _82  and  _83
REMARK   37  A    between atoms: _82  and  _85
REMARK   38  A    between atoms: _85  and  _86
REMARK   39  A    between atoms: _89  and  _91
REMARK   40  A    between atoms: _91  and  _92
REMARK   41  A    between atoms: _91  and  _94
REMARK   42  A    between atoms: _97  and  _99
REMARK   43  A    between atoms: _99  and  _100
REMARK   44  A    between atoms: _99  and  _102
REMARK   45  A    between atoms: _102  and  _103
REMARK   46  A    between atoms: _106  and  _108
REMARK   47  A    between atoms: _108  and  _109
REMARK   48  A    between atoms: _108  and  _111
REMARK   49  A    between atoms: _111  and  _112
REMARK   50  A    between atoms: _117  and  _118
REMARK   51  A    between atoms: _120  and  _122
REMARK   52  A    between atoms: _122  and  _123
REMARK   53  A    between atoms: _122  and  _125
REMARK   54  A    between atoms: _127  and  _129
REMARK   55  A    between atoms: _129  and  _130
REMARK   56  A    between atoms: _129  and  _132
REMARK   57  A    between atoms: _132  and  _133
REMARK   58  A    between atoms: _133  and  _134
REMARK   59  A    between atoms: _134  and  _135
REMARK   60  A    between atoms: _144  and  _146
REMARK   61  A    between atoms: _146  and  _147
REMARK   62  A    between atoms: _146  and  _149
REMARK   63  A    between atoms: _149  and  _150
REMARK   64  A    between atoms: _153  and  _155
REMARK   65  A    between atoms: _155  and  _156
REMARK   66  A    between atoms: _155  and  _158
REMARK   67  A    between atoms: _158  and  _159
REMARK   68  A    between atoms: _162  and  _164
REMARK   69  A    between atoms: _164  and  _165
REMARK   70  A    between atoms: _164  and  _167
REMARK   71  A    between atoms: _167  and  _168
REMARK   72  A    between atoms: _171  and  _173
REMARK   73  A    between atoms: _173  and  _174
REMARK   74  A    between atoms: _173  and  _176
REMARK   75  A    between atoms: _179  and  _181
REMARK   76  A    between atoms: _181  and  _182
REMARK   77  A    between atoms: _181  and  _184
REMARK   78  A    between atoms: _184  and  _185
REMARK   79  A    between atoms: _188  and  _190
REMARK   80  A    between atoms: _190  and  _191
REMARK   81  A    between atoms: _190  and  _193
REMARK   82  A    between atoms: _193  and  _194
REMARK   83  A    between atoms: _199  and  _200
REMARK   84  A    between atoms: _202  and  _204
REMARK   85  A    between atoms: _204  and  _205
REMARK   86  A    between atoms: _204  and  _207
REMARK   87  A    between atoms: _209  and  _211
REMARK   88  A    between atoms: _211  and  _212
REMARK   89  A    between atoms: _211  and  _214
REMARK   90  A    between atoms: _217  and  _219
REMARK   91  A    between atoms: _219  and  _220
REMARK   92  A    between atoms: _223  and  _225
REMARK   93  A    between atoms: _225  and  _226
REMARK   94  A    between atoms: _228  and  _230
REMARK   95  A    between atoms: _230  and  _231
REMARK   96  A    between atoms: _230  and  _233
REMARK   97  A    between atoms: _233  and  _234
REMARK   98  A    between atoms: _237  and  _239
REMARK   99  A    between atoms: _239  and  _240
REMARK  100  A    between atoms: _239  and  _242
REMARK  101  A    between atoms: _245  and  _247
REMARK  102  A    between atoms: _247  and  _248
REMARK  103  A    between atoms: _250  and  _252
REMARK  104  A    between atoms: _252  and  _253
REMARK  105  A    between atoms: _252  and  _255
REMARK  106  A    between atoms: _255  and  _256
REMARK  107  A    between atoms: _256  and  _257
REMARK  108  A    between atoms: _260  and  _262
REMARK  109  A    between atoms: _262  and  _263
REMARK  110  A    between atoms: _262  and  _265
REMARK  111  A    between atoms: _268  and  _270
REMARK  112  A    between atoms: _270  and  _271
REMARK  113  A    between atoms: _270  and  _273
REMARK  114  A    between atoms: _273  and  _274
REMARK  115  A    between atoms: _277  and  _279
REMARK  116  A    between atoms: _279  and  _280
REMARK  117  A    between atoms: _279  and  _282
REMARK  118  A    between atoms: _282  and  _283
REMARK  119  A    between atoms: _286  and  _288
REMARK  120  A    between atoms: _288  and  _289
REMARK  121  A    between atoms: _288  and  _291
REMARK  122  A    between atoms: _291  and  _292
REMARK  123  A    between atoms: _295  and  _297
REMARK  124  A    between atoms: _297  and  _298
REMARK  125  A    between atoms: _297  and  _300
REMARK  126  A    between atoms: _300  and  _301
REMARK  127  A    between atoms: _304  and  _306
REMARK  128  A    between atoms: _306  and  _307
REMARK  129  A    between atoms: _306  and  _309
REMARK  130  A    between atoms: _309  and  _310
REMARK  131  A    between atoms: _312  and  _314
REMARK  132  A    between atoms: _314  and  _315
REMARK  133  A    between atoms: _314  and  _317
REMARK  134  A    between atoms: _317  and  _318
REMARK  135  A    between atoms: _321  and  _323
REMARK  136  A    between atoms: _323  and  _324
REMARK  137  A    between atoms: _323  and  _326
REMARK  138  A    between atoms: _326  and  _327
REMARK  139  A    between atoms: _332  and  _333
REMARK  140  A    between atoms: _335  and  _337
REMARK  141  A    between atoms: _337  and  _338
REMARK  142  A    between atoms: _337  and  _340
REMARK  143  A    between atoms: _343  and  _345
REMARK  144  A    between atoms: _345  and  _346
REMARK  145  A    between atoms: _349  and  _351
REMARK  146  A    between atoms: _351  and  _352
REMARK  147  A    between atoms: _351  and  _354
REMARK  148  A    between atoms: _354  and  _355
REMARK  149  A    between atoms: _355  and  _356
REMARK  150  A    between atoms: _356  and  _357
REMARK  151  A    between atoms: _366  and  _368
REMARK  152  A    between atoms: _368  and  _369
REMARK  153  A    between atoms: _368  and  _371
REMARK  154  A    between atoms: _371  and  _372
REMARK  155  A    between atoms: _372  and  _373
REMARK  156  A    between atoms: _373  and  _374
REMARK  157  A    between atoms: _383  and  _385
REMARK  158  A    between atoms: _385  and  _386
REMARK  159  A    between atoms: _385  and  _388
REMARK  160  A    between atoms: _388  and  _389
REMARK  161  A    between atoms: _392  and  _394
REMARK  162  A    between atoms: _394  and  _395
REMARK  163  A    between atoms: _397  and  _399
REMARK  164  A    between atoms: _399  and  _400
REMARK  165  A    between atoms: _399  and  _402
REMARK  166  A    between atoms: _402  and  _403
REMARK  167  A    between atoms: _403  and  _404
REMARK  168  A    between atoms: _407  and  _409
REMARK  169  A    between atoms: _409  and  _410
REMARK  170  A    between atoms: _409  and  _412
REMARK  171  A    between atoms: _412  and  _413
REMARK  172  A    between atoms: _415  and  _417
REMARK  173  A    between atoms: _417  and  _418
REMARK  174  A    between atoms: _417  and  _420
REMARK  175  A    between atoms: _420  and  _421
REMARK  176  A    between atoms: _424  and  _426
REMARK  177  A    between atoms: _426  and  _427
REMARK  178  A    between atoms: _426  and  _429
REMARK  179  A    between atoms: _429  and  _430
REMARK  180  A    between atoms: _430  and  _431
REMARK  181  A    between atoms: _436  and  _438
REMARK  182  A    between atoms: _438  and  _439
REMARK  183  A    between atoms: _438  and  _441
REMARK  184  A    between atoms: _441  and  _442
REMARK  185  A    between atoms: _445  and  _447
REMARK  186  A    between atoms: _447  and  _448
REMARK  187  A    between atoms: _447  and  _450
REMARK  188  A    between atoms: _450  and  _451
REMARK  189  A    between atoms: _454  and  _456
REMARK  190  A    between atoms: _456  and  _457
REMARK  191  A    between atoms: _456  and  _459
REMARK  192  A    between atoms: _459  and  _460
REMARK  193  A    between atoms: _460  and  _461
REMARK  194  A    between atoms: _460  and  _462
REMARK  195  A    between atoms: _461  and  MG_705
REMARK  196  A    between atoms: _465  and  _467
REMARK  197  A    between atoms: _467  and  _468
REMARK  198  A    between atoms: _467  and  _470
REMARK  199  A    between atoms: _470  and  _471
REMARK  200  A    between atoms: _474  and  _476
REMARK  201  A    between atoms: _476  and  _477
REMARK  202  A    between atoms: _476  and  _479
REMARK  203  A    between atoms: _479  and  _480
REMARK  204  A    between atoms: _480  and  _481
REMARK  205  A    between atoms: _481  and  _482
REMARK  206  A    between atoms: _491  and  _493
REMARK  207  A    between atoms: _493  and  _494
REMARK  208  A    between atoms: _493  and  _496
REMARK  209  A    between atoms: _496  and  _497
REMARK  210  A    between atoms: _497  and  _499
REMARK  211  A    between atoms: _499  and  MG_705
REMARK  212  A    between atoms: _500  and  _502
REMARK  213  A    between atoms: _502  and  _503
REMARK  214  A    between atoms: _502  and  _505
REMARK  215  A    between atoms: _505  and  _506
REMARK  216  A    between atoms: _506  and  _507
REMARK  217  A    between atoms: _510  and  _512
REMARK  218  A    between atoms: _512  and  _513
REMARK  219  A    between atoms: _512  and  _515
REMARK  220  A    between atoms: _515  and  _516
REMARK  221  A    between atoms: _519  and  _521
REMARK  222  A    between atoms: _521  and  _522
REMARK  223  A    between atoms: _521  and  _524
REMARK  224  A    between atoms: _524  and  _525
REMARK  225  A    between atoms: _530  and  _532
REMARK  226  A    between atoms: _532  and  _533
REMARK  227  A    between atoms: _532  and  _535
REMARK  228  A    between atoms: _535  and  _536
REMARK  229  A    between atoms: _536  and  _537
REMARK  230  A    between atoms: _537  and  _538
REMARK  231  A    between atoms: _547  and  _549
REMARK  232  A    between atoms: _549  and  _550
REMARK  233  A    between atoms: _549  and  _552
REMARK  234  A    between atoms: _552  and  _553
REMARK  235  A    between atoms: _558  and  _559
REMARK  236  A    between atoms: _561  and  _563
REMARK  237  A    between atoms: _563  and  _564
REMARK  238  A    between atoms: _563  and  _566
REMARK  239  A    between atoms: _569  and  _571
REMARK  240  A    between atoms: _571  and  _572
REMARK  241  A    between atoms: _571  and  _574
REMARK  242  A    between atoms: _574  and  _575
REMARK  243  A    between atoms: _575  and  _576
REMARK  244  A    between atoms: _578  and  _580
REMARK  245  A    between atoms: _580  and  _581
REMARK  246  A    between atoms: _580  and  _583
REMARK  247  A    between atoms: _583  and  _584
REMARK  248  A    between atoms: _587  and  _589
REMARK  249  A    between atoms: _589  and  _590
REMARK  250  A    between atoms: _589  and  _592
REMARK  251  A    between atoms: _595  and  _597
REMARK  252  A    between atoms: _597  and  _598
REMARK  253  A    between atoms: _597  and  _600
REMARK  254  A    between atoms: _600  and  _601
REMARK  255  A    between atoms: _607  and  _609
REMARK  256  A    between atoms: _609  and  _610
REMARK  257  A    between atoms: _613  and  _615
REMARK  258  A    between atoms: _615  and  _616
REMARK  259  A    between atoms: _615  and  _618
REMARK  260  A    between atoms: _618  and  _619
REMARK  261  A    between atoms: _619  and  _620
REMARK  262  A    between atoms: _625  and  _627
REMARK  263  A    between atoms: _627  and  _628
REMARK  264  A    between atoms: _627  and  _630
REMARK  265  A    between atoms: _630  and  _631
REMARK  266  A    between atoms: _634  and  _636
REMARK  267  A    between atoms: _636  and  _637
REMARK  268  A    between atoms: _636  and  _639
REMARK  269  A    between atoms: _639  and  _640
REMARK  270  A    between atoms: _643  and  _645
REMARK  271  A    between atoms: _645  and  _646
REMARK  272  A    between atoms: _645  and  _648
REMARK  273  A    between atoms: _648  and  _649
REMARK  274  A    between atoms: _649  and  _650
REMARK  275  A    between atoms: _653  and  _655
REMARK  276  A    between atoms: _655  and  _656
REMARK  277  A    between atoms: _659  and  _661
REMARK  278  A    between atoms: _661  and  _662
REMARK  279  A    between atoms: _665  and  _667
REMARK  280  A    between atoms: _667  and  _668
REMARK  281  A    between atoms: _667  and  _670
REMARK  282  A    between atoms: _670  and  _671
REMARK  283  A    between atoms: _676  and  _677
REMARK  284  A    between atoms: _679  and  _681
REMARK  285  A    between atoms: _681  and  _682
REMARK  286  A    between atoms: _681  and  _684
REMARK  287  A    between atoms: _684  and  _685
REMARK  288  A    between atoms: _688  and  _690
REMARK  289  A    between atoms: _690  and  _691
REMARK  290  A    between atoms: _690  and  _693
REMARK  291  A    between atoms: _693  and  _694
REMARK  292  A    between atoms: _694  and  _695
REMARK  293  A    between atoms: _695  and  _696
REMARK                            x       y       z     vdW  Elec       q    Type
REMARK                         _______ _______ _______ _____ _____    ______ ____
ROOT
ATOM      1  O   HOH     1      23.589  42.713  35.670  0.00  0.00    +0.000 OA
ENDROOT
TORSDOF 0
REMARK  Name = ../refined-set-2016/2zcr/2zcr_pocket.pdb
REMARK  293 active torsions:
REMARK  status: ('A' for Active; 'I' for Inactive)
REMARK    1  A    between atoms: _1  and  _3
REMARK    2  A    between atoms: _3  and  _4
REMARK    3  A    between atoms: _3  and  _6
REMARK    4  A    between atoms: _6  and  _7
REMARK    5  A    between atoms: _7  and  _8
REMARK    6  A    between atoms: _10  and  _12
REMARK    7  A    between atoms: _12  and  _13
REMARK    8  A    between atoms: _12  and  _15
REMARK    9  A    between atoms: _15  and  _16
REMARK   10  A    between atoms: _21  and  _23
REMARK   11  A    between atoms: _23  and  _24
REMARK   12  A    between atoms: _23  and  _26
REMARK   13  A    between atoms: _26  and  _27
REMARK   14  A    between atoms: _29  and  _31
REMARK   15  A    between atoms: _31  and  _32
REMARK   16  A    between atoms: _31  and  _34
REMARK   17  A    between atoms: _34  and  _35
REMARK   18  A    between atoms: _35  and  _36
REMARK   19  A    between atoms: _36  and  _37
REMARK   20  A    between atoms: _37  and  _38
REMARK   21  A    between atoms: _42  and  _44
REMARK   22  A    between atoms: _44  and  _45
REMARK   23  A    between atoms: _44  and  _47
REMARK   24  A    between atoms: _47  and  _48
REMARK   25  A    between atoms: _50  and  _52
REMARK   26  A    between atoms: _52  and  _53
REMARK   27  A    between atoms: _52  and  _55
REMARK   28  A    between atoms: _55  and  _56
REMARK   29  A    between atoms: _62  and  _64
REMARK   30  A    between atoms: _64  and  _65
REMARK   31  A    between atoms: _68  and  _70
REMARK   32  A    between atoms: _70  and  _71
REMARK   33  A    between atoms: _70  and  _73
REMARK   34  A    between atoms: _73  and  _74
REMARK   35  A    between atoms: _80  and  _82
REMARK   36  A    between atoms: _82  and  _83
REMARK   37  A    between atoms: _82  and  _85
REMARK   38  A    between atoms: _85  and  _86
REMARK   39  A    between atoms: _89  and  _91
REMARK   40  A    between atoms: _91  and  _92
REMARK   41  A    between atoms: _91  and  _94
REMARK   42  A    between atoms: _97  and  _99
REMARK   43  A    between atoms: _99  and  _100
REMARK   44  A    between atoms: _99  and  _102
REMARK   45  A    between atoms: _102  and  _103
REMARK   46  A    between atoms: _106  and  _108
REMARK   47  A    between atoms: _108  and  _109
REMARK   48  A    between atoms: _108  and  _111
REMARK   49  A    between atoms: _111  and  _112
REMARK   50  A    between atoms: _117  and  _118
REMARK   51  A    between atoms: _120  and  _122
REMARK   52  A    between atoms: _122  and  _123
REMARK   53  A    between atoms: _122  and  _125
REMARK   54  A    between atoms: _127  and  _129
REMARK   55  A    between atoms: _129  and  _130
REMARK   56  A    between atoms: _129  and  _132
REMARK   57  A    between atoms: _132  and  _133
REMARK   58  A    between atoms: _133  and  _134
REMARK   59  A    between atoms: _134  and  _135
REMARK   60  A    between atoms: _144  and  _146
REMARK   61  A    between atoms: _146  and  _147
REMARK   62  A    between atoms: _146  and  _149
REMARK   63  A    between atoms: _149  and  _150
REMARK   64  A    between atoms: _153  and  _155
REMARK   65  A    between atoms: _155  and  _156
REMARK   66  A    between atoms: _155  and  _158
REMARK   67  A    between atoms: _158  and  _159
REMARK   68  A    between atoms: _162  and  _164
REMARK   69  A    between atoms: _164  and  _165
REMARK   70  A    between atoms: _164  and  _167
REMARK   71  A    between atoms: _167  and  _168
REMARK   72  A    between atoms: _171  and  _173
REMARK   73  A    between atoms: _173  and  _174
REMARK   74  A    between atoms: _173  and  _176
REMARK   75  A    between atoms: _179  and  _181
REMARK   76  A    between atoms: _181  and  _182
REMARK   77  A    between atoms: _181  and  _184
REMARK   78  A    between atoms: _184  and  _185
REMARK   79  A    between atoms: _188  and  _190
REMARK   80  A    between atoms: _190  and  _191
REMARK   81  A    between atoms: _190  and  _193
REMARK   82  A    between atoms: _193  and  _194
REMARK   83  A    between atoms: _199  and  _200
REMARK   84  A    between atoms: _202  and  _204
REMARK   85  A    between atoms: _204  and  _205
REMARK   86  A    between atoms: _204  and  _207
REMARK   87  A    between atoms: _209  and  _211
REMARK   88  A    between atoms: _211  and  _212
REMARK   89  A    between atoms: _211  and  _214
REMARK   90  A    between atoms: _217  and  _219
REMARK   91  A    between atoms: _219  and  _220
REMARK   92  A    between atoms: _223  and  _225
REMARK   93  A    between atoms: _225  and  _226
REMARK   94  A    between atoms: _228  and  _230
REMARK   95  A    between atoms: _230  and  _231
REMARK   96  A    between atoms: _230  and  _233
REMARK   97  A    between atoms: _233  and  _234
REMARK   98  A    between atoms: _237  and  _239
REMARK   99  A    between atoms: _239  and  _240
REMARK  100  A    between atoms: _239  and  _242
REMARK  101  A    between atoms: _245  and  _247
REMARK  102  A    between atoms: _247  and  _248
REMARK  103  A    between atoms: _250  and  _252
REMARK  104  A    between atoms: _252  and  _253
REMARK  105  A    between atoms: _252  and  _255
REMARK  106  A    between atoms: _255  and  _256
REMARK  107  A    between atoms: _256  and  _257
REMARK  108  A    between atoms: _260  and  _262
REMARK  109  A    between atoms: _262  and  _263
REMARK  110  A    between atoms: _262  and  _265
REMARK  111  A    between atoms: _268  and  _270
REMARK  112  A    between atoms: _270  and  _271
REMARK  113  A    between atoms: _270  and  _273
REMARK  114  A    between atoms: _273  and  _274
REMARK  115  A    between atoms: _277  and  _279
REMARK  116  A    between atoms: _279  and  _280
REMARK  117  A    between atoms: _279  and  _282
REMARK  118  A    between atoms: _282  and  _283
REMARK  119  A    between atoms: _286  and  _288
REMARK  120  A    between atoms: _288  and  _289
REMARK  121  A    between atoms: _288  and  _291
REMARK  122  A    between atoms: _291  and  _292
REMARK  123  A    between atoms: _295  and  _297
REMARK  124  A    between atoms: _297  and  _298
REMARK  125  A    between atoms: _297  and  _300
REMARK  126  A    between atoms: _300  and  _301
REMARK  127  A    between atoms: _304  and  _306
REMARK  128  A    between atoms: _306  and  _307
REMARK  129  A    between atoms: _306  and  _309
REMARK  130  A    between atoms: _309  and  _310
REMARK  131  A    between atoms: _312  and  _314
REMARK  132  A    between atoms: _314  and  _315
REMARK  133  A    between atoms: _314  and  _317
REMARK  134  A    between atoms: _317  and  _318
REMARK  135  A    between atoms: _321  and  _323
REMARK  136  A    between atoms: _323  and  _324
REMARK  137  A    between atoms: _323  and  _326
REMARK  138  A    between atoms: _326  and  _327
REMARK  139  A    between atoms: _332  and  _333
REMARK  140  A    between atoms: _335  and  _337
REMARK  141  A    between atoms: _337  and  _338
REMARK  142  A    between atoms: _337  and  _340
REMARK  143  A    between atoms: _343  and  _345
REMARK  144  A    between atoms: _345  and  _346
REMARK  145  A    between atoms: _349  and  _351
REMARK  146  A    between atoms: _351  and  _352
REMARK  147  A    between atoms: _351  and  _354
REMARK  148  A    between atoms: _354  and  _355
REMARK  149  A    between atoms: _355  and  _356
REMARK  150  A    between atoms: _356  and  _357
REMARK  151  A    between atoms: _366  and  _368
REMARK  152  A    between atoms: _368  and  _369
REMARK  153  A    between atoms: _368  and  _371
REMARK  154  A    between atoms: _371  and  _372
REMARK  155  A    between atoms: _372  and  _373
REMARK  156  A    between atoms: _373  and  _374
REMARK  157  A    between atoms: _383  and  _385
REMARK  158  A    between atoms: _385  and  _386
REMARK  159  A    between atoms: _385  and  _388
REMARK  160  A    between atoms: _388  and  _389
REMARK  161  A    between atoms: _392  and  _394
REMARK  162  A    between atoms: _394  and  _395
REMARK  163  A    between atoms: _397  and  _399
REMARK  164  A    between atoms: _399  and  _400
REMARK  165  A    between atoms: _399  and  _402
REMARK  166  A    between atoms: _402  and  _403
REMARK  167  A    between atoms: _403  and  _404
REMARK  168  A    between atoms: _407  and  _409
REMARK  169  A    between atoms: _409  and  _410
REMARK  170  A    between atoms: _409  and  _412
REMARK  171  A    between atoms: _412  and  _413
REMARK  172  A    between atoms: _415  and  _417
REMARK  173  A    between atoms: _417  and  _418
REMARK  174  A    between atoms: _417  and  _420
REMARK  175  A    between atoms: _420  and  _421
REMARK  176  A    between atoms: _424  and  _426
REMARK  177  A    between atoms: _426  and  _427
REMARK  178  A    between atoms: _426  and  _429
REMARK  179  A    between atoms: _429  and  _430
REMARK  180  A    between atoms: _430  and  _431
REMARK  181  A    between atoms: _436  and  _438
REMARK  182  A    between atoms: _438  and  _439
REMARK  183  A    between atoms: _438  and  _441
REMARK  184  A    between atoms: _441  and  _442
REMARK  185  A    between atoms: _445  and  _447
REMARK  186  A    between atoms: _447  and  _448
REMARK  187  A    between atoms: _447  and  _450
REMARK  188  A    between atoms: _450  and  _451
REMARK  189  A    between atoms: _454  and  _456
REMARK  190  A    between atoms: _456  and  _457
REMARK  191  A    between atoms: _456  and  _459
REMARK  192  A    between atoms: _459  and  _460
REMARK  193  A    between atoms: _460  and  _461
REMARK  194  A    between atoms: _460  and  _462
REMARK  195  A    between atoms: _461  and  MG_705
REMARK  196  A    between atoms: _465  and  _467
REMARK  197  A    between atoms: _467  and  _468
REMARK  198  A    between atoms: _467  and  _470
REMARK  199  A    between atoms: _470  and  _471
REMARK  200  A    between atoms: _474  and  _476
REMARK  201  A    between atoms: _476  and  _477
REMARK  202  A    between atoms: _476  and  _479
REMARK  203  A    between atoms: _479  and  _480
REMARK  204  A    between atoms: _480  and  _481
REMARK  205  A    between atoms: _481  and  _482
REMARK  206  A    between atoms: _491  and  _493
REMARK  207  A    between atoms: _493  and  _494
REMARK  208  A    between atoms: _493  and  _496
REMARK  209  A    between atoms: _496  and  _497
REMARK  210  A    between atoms: _497  and  _499
REMARK  211  A    between atoms: _499  and  MG_705
REMARK  212  A    between atoms: _500  and  _502
REMARK  213  A    between atoms: _502  and  _503
REMARK  214  A    between atoms: _502  and  _505
REMARK  215  A    between atoms: _505  and  _506
REMARK  216  A    between atoms: _506  and  _507
REMARK  217  A    between atoms: _510  and  _512
REMARK  218  A    between atoms: _512  and  _513
REMARK  219  A    between atoms: _512  and  _515
REMARK  220  A    between atoms: _515  and  _516
REMARK  221  A    between atoms: _519  and  _521
REMARK  222  A    between atoms: _521  and  _522
REMARK  223  A    between atoms: _521  and  _524
REMARK  224  A    between atoms: _524  and  _525
REMARK  225  A    between atoms: _530  and  _532
REMARK  226  A    between atoms: _532  and  _533
REMARK  227  A    between atoms: _532  and  _535
REMARK  228  A    between atoms: _535  and  _536
REMARK  229  A    between atoms: _536  and  _537
REMARK  230  A    between atoms: _537  and  _538
REMARK  231  A    between atoms: _547  and  _549
REMARK  232  A    between atoms: _549  and  _550
REMARK  233  A    between atoms: _549  and  _552
REMARK  234  A    between atoms: _552  and  _553
REMARK  235  A    between atoms: _558  and  _559
REMARK  236  A    between atoms: _561  and  _563
REMARK  237  A    between atoms: _563  and  _564
REMARK  238  A    between atoms: _563  and  _566
REMARK  239  A    between atoms: _569  and  _571
REMARK  240  A    between atoms: _571  and  _572
REMARK  241  A    between atoms: _571  and  _574
REMARK  242  A    between atoms: _574  and  _575
REMARK  243  A    between atoms: _575  and  _576
REMARK  244  A    between atoms: _578  and  _580
REMARK  245  A    between atoms: _580  and  _581
REMARK  246  A    between atoms: _580  and  _583
REMARK  247  A    between atoms: _583  and  _584
REMARK  248  A    between atoms: _587  and  _589
REMARK  249  A    between atoms: _589  and  _590
REMARK  250  A    between atoms: _589  and  _592
REMARK  251  A    between atoms: _595  and  _597
REMARK  252  A    between atoms: _597  and  _598
REMARK  253  A    between atoms: _597  and  _600
REMARK  254  A    between atoms: _600  and  _601
REMARK  255  A    between atoms: _607  and  _609
REMARK  256  A    between atoms: _609  and  _610
REMARK  257  A    between atoms: _613  and  _615
REMARK  258  A    between atoms: _615  and  _616
REMARK  259  A    between atoms: _615  and  _618
REMARK  260  A    between atoms: _618  and  _619
REMARK  261  A    between atoms: _619  and  _620
REMARK  262  A    between atoms: _625  and  _627
REMARK  263  A    between atoms: _627  and  _628
REMARK  264  A    between atoms: _627  and  _630
REMARK  265  A    between atoms: _630  and  _631
REMARK  266  A    between atoms: _634  and  _636
REMARK  267  A    between atoms: _636  and  _637
REMARK  268  A    between atoms: _636  and  _639
REMARK  269  A    between atoms: _639  and  _640
REMARK  270  A    between atoms: _643  and  _645
REMARK  271  A    between atoms: _645  and  _646
REMARK  272  A    between atoms: _645  and  _648
REMARK  273  A    between atoms: _648  and  _649
REMARK  274  A    between atoms: _649  and  _650
REMARK  275  A    between atoms: _653  and  _655
REMARK  276  A    between atoms: _655  and  _656
REMARK  277  A    between atoms: _659  and  _661
REMARK  278  A    between atoms: _661  and  _662
REMARK  279  A    between atoms: _665  and  _667
REMARK  280  A    between atoms: _667  and  _668
REMARK  281  A    between atoms: _667  and  _670
REMARK  282  A    between atoms: _670  and  _671
REMARK  283  A    between atoms: _676  and  _677
REMARK  284  A    between atoms: _679  and  _681
REMARK  285  A    between atoms: _681  and  _682
REMARK  286  A    between atoms: _681  and  _684
REMARK  287  A    between atoms: _684  and  _685
REMARK  288  A    between atoms: _688  and  _690
REMARK  289  A    between atoms: _690  and  _691
REMARK  290  A    between atoms: _690  and  _693
REMARK  291  A    between atoms: _693  and  _694
REMARK  292  A    between atoms: _694  and  _695
REMARK  293  A    between atoms: _695  and  _696
REMARK                            x       y       z     vdW  Elec       q    Type
REMARK                         _______ _______ _______ _____ _____    ______ ____
ROOT
ATOM      1  O   HOH     1      23.857  48.053  44.808  0.00  0.00    +0.000 OA
ENDROOT
TORSDOF 0
REMARK  Name = ../refined-set-2016/2zcr/2zcr_pocket.pdb
REMARK  293 active torsions:
REMARK  status: ('A' for Active; 'I' for Inactive)
REMARK    1  A    between atoms: _1  and  _3
REMARK    2  A    between atoms: _3  and  _4
REMARK    3  A    between atoms: _3  and  _6
REMARK    4  A    between atoms: _6  and  _7
REMARK    5  A    between atoms: _7  and  _8
REMARK    6  A    between atoms: _10  and  _12
REMARK    7  A    between atoms: _12  and  _13
REMARK    8  A    between atoms: _12  and  _15
REMARK    9  A    between atoms: _15  and  _16
REMARK   10  A    between atoms: _21  and  _23
REMARK   11  A    between atoms: _23  and  _24
REMARK   12  A    between atoms: _23  and  _26
REMARK   13  A    between atoms: _26  and  _27
REMARK   14  A    between atoms: _29  and  _31
REMARK   15  A    between atoms: _31  and  _32
REMARK   16  A    between atoms: _31  and  _34
REMARK   17  A    between atoms: _34  and  _35
REMARK   18  A    between atoms: _35  and  _36
REMARK   19  A    between atoms: _36  and  _37
REMARK   20  A    between atoms: _37  and  _38
REMARK   21  A    between atoms: _42  and  _44
REMARK   22  A    between atoms: _44  and  _45
REMARK   23  A    between atoms: _44  and  _47
REMARK   24  A    between atoms: _47  and  _48
REMARK   25  A    between atoms: _50  and  _52
REMARK   26  A    between atoms: _52  and  _53
REMARK   27  A    between atoms: _52  and  _55
REMARK   28  A    between atoms: _55  and  _56
REMARK   29  A    between atoms: _62  and  _64
REMARK   30  A    between atoms: _64  and  _65
REMARK   31  A    between atoms: _68  and  _70
REMARK   32  A    between atoms: _70  and  _71
REMARK   33  A    between atoms: _70  and  _73
REMARK   34  A    between atoms: _73  and  _74
REMARK   35  A    between atoms: _80  and  _82
REMARK   36  A    between atoms: _82  and  _83
REMARK   37  A    between atoms: _82  and  _85
REMARK   38  A    between atoms: _85  and  _86
REMARK   39  A    between atoms: _89  and  _91
REMARK   40  A    between atoms: _91  and  _92
REMARK   41  A    between atoms: _91  and  _94
REMARK   42  A    between atoms: _97  and  _99
REMARK   43  A    between atoms: _99  and  _100
REMARK   44  A    between atoms: _99  and  _102
REMARK   45  A    between atoms: _102  and  _103
REMARK   46  A    between atoms: _106  and  _108
REMARK   47  A    between atoms: _108  and  _109
REMARK   48  A    between atoms: _108  and  _111
REMARK   49  A    between atoms: _111  and  _112
REMARK   50  A    between atoms: _117  and  _118
REMARK   51  A    between atoms: _120  and  _122
REMARK   52  A    between atoms: _122  and  _123
REMARK   53  A    between atoms: _122  and  _125
REMARK   54  A    between atoms: _127  and  _129
REMARK   55  A    between atoms: _129  and  _130
REMARK   56  A    between atoms: _129  and  _132
REMARK   57  A    between atoms: _132  and  _133
REMARK   58  A    between atoms: _133  and  _134
REMARK   59  A    between atoms: _134  and  _135
REMARK   60  A    between atoms: _144  and  _146
REMARK   61  A    between atoms: _146  and  _147
REMARK   62  A    between atoms: _146  and  _149
REMARK   63  A    between atoms: _149  and  _150
REMARK   64  A    between atoms: _153  and  _155
REMARK   65  A    between atoms: _155  and  _156
REMARK   66  A    between atoms: _155  and  _158
REMARK   67  A    between atoms: _158  and  _159
REMARK   68  A    between atoms: _162  and  _164
REMARK   69  A    between atoms: _164  and  _165
REMARK   70  A    between atoms: _164  and  _167
REMARK   71  A    between atoms: _167  and  _168
REMARK   72  A    between atoms: _171  and  _173
REMARK   73  A    between atoms: _173  and  _174
REMARK   74  A    between atoms: _173  and  _176
REMARK   75  A    between atoms: _179  and  _181
REMARK   76  A    between atoms: _181  and  _182
REMARK   77  A    between atoms: _181  and  _184
REMARK   78  A    between atoms: _184  and  _185
REMARK   79  A    between atoms: _188  and  _190
REMARK   80  A    between atoms: _190  and  _191
REMARK   81  A    between atoms: _190  and  _193
REMARK   82  A    between atoms: _193  and  _194
REMARK   83  A    between atoms: _199  and  _200
REMARK   84  A    between atoms: _202  and  _204
REMARK   85  A    between atoms: _204  and  _205
REMARK   86  A    between atoms: _204  and  _207
REMARK   87  A    between atoms: _209  and  _211
REMARK   88  A    between atoms: _211  and  _212
REMARK   89  A    between atoms: _211  and  _214
REMARK   90  A    between atoms: _217  and  _219
REMARK   91  A    between atoms: _219  and  _220
REMARK   92  A    between atoms: _223  and  _225
REMARK   93  A    between atoms: _225  and  _226
REMARK   94  A    between atoms: _228  and  _230
REMARK   95  A    between atoms: _230  and  _231
REMARK   96  A    between atoms: _230  and  _233
REMARK   97  A    between atoms: _233  and  _234
REMARK   98  A    between atoms: _237  and  _239
REMARK   99  A    between atoms: _239  and  _240
REMARK  100  A    between atoms: _239  and  _242
REMARK  101  A    between atoms: _245  and  _247
REMARK  102  A    between atoms: _247  and  _248
REMARK  103  A    between atoms: _250  and  _252
REMARK  104  A    between atoms: _252  and  _253
REMARK  105  A    between atoms: _252  and  _255
REMARK  106  A    between atoms: _255  and  _256
REMARK  107  A    between atoms: _256  and  _257
REMARK  108  A    between atoms: _260  and  _262
REMARK  109  A    between atoms: _262  and  _263
REMARK  110  A    between atoms: _262  and  _265
REMARK  111  A    between atoms: _268  and  _270
REMARK  112  A    between atoms: _270  and  _271
REMARK  113  A    between atoms: _270  and  _273
REMARK  114  A    between atoms: _273  and  _274
REMARK  115  A    between atoms: _277  and  _279
REMARK  116  A    between atoms: _279  and  _280
REMARK  117  A    between atoms: _279  and  _282
REMARK  118  A    between atoms: _282  and  _283
REMARK  119  A    between atoms: _286  and  _288
REMARK  120  A    between atoms: _288  and  _289
REMARK  121  A    between atoms: _288  and  _291
REMARK  122  A    between atoms: _291  and  _292
REMARK  123  A    between atoms: _295  and  _297
REMARK  124  A    between atoms: _297  and  _298
REMARK  125  A    between atoms: _297  and  _300
REMARK  126  A    between atoms: _300  and  _301
REMARK  127  A    between atoms: _304  and  _306
REMARK  128  A    between atoms: _306  and  _307
REMARK  129  A    between atoms: _306  and  _309
REMARK  130  A    between atoms: _309  and  _310
REMARK  131  A    between atoms: _312  and  _314
REMARK  132  A    between atoms: _314  and  _315
REMARK  133  A    between atoms: _314  and  _317
REMARK  134  A    between atoms: _317  and  _318
REMARK  135  A    between atoms: _321  and  _323
REMARK  136  A    between atoms: _323  and  _324
REMARK  137  A    between atoms: _323  and  _326
REMARK  138  A    between atoms: _326  and  _327
REMARK  139  A    between atoms: _332  and  _333
REMARK  140  A    between atoms: _335  and  _337
REMARK  141  A    between atoms: _337  and  _338
REMARK  142  A    between atoms: _337  and  _340
REMARK  143  A    between atoms: _343  and  _345
REMARK  144  A    between atoms: _345  and  _346
REMARK  145  A    between atoms: _349  and  _351
REMARK  146  A    between atoms: _351  and  _352
REMARK  147  A    between atoms: _351  and  _354
REMARK  148  A    between atoms: _354  and  _355
REMARK  149  A    between atoms: _355  and  _356
REMARK  150  A    between atoms: _356  and  _357
REMARK  151  A    between atoms: _366  and  _368
REMARK  152  A    between atoms: _368  and  _369
REMARK  153  A    between atoms: _368  and  _371
REMARK  154  A    between atoms: _371  and  _372
REMARK  155  A    between atoms: _372  and  _373
REMARK  156  A    between atoms: _373  and  _374
REMARK  157  A    between atoms: _383  and  _385
REMARK  158  A    between atoms: _385  and  _386
REMARK  159  A    between atoms: _385  and  _388
REMARK  160  A    between atoms: _388  and  _389
REMARK  161  A    between atoms: _392  and  _394
REMARK  162  A    between atoms: _394  and  _395
REMARK  163  A    between atoms: _397  and  _399
REMARK  164  A    between atoms: _399  and  _400
REMARK  165  A    between atoms: _399  and  _402
REMARK  166  A    between atoms: _402  and  _403
REMARK  167  A    between atoms: _403  and  _404
REMARK  168  A    between atoms: _407  and  _409
REMARK  169  A    between atoms: _409  and  _410
REMARK  170  A    between atoms: _409  and  _412
REMARK  171  A    between atoms: _412  and  _413
REMARK  172  A    between atoms: _415  and  _417
REMARK  173  A    between atoms: _417  and  _418
REMARK  174  A    between atoms: _417  and  _420
REMARK  175  A    between atoms: _420  and  _421
REMARK  176  A    between atoms: _424  and  _426
REMARK  177  A    between atoms: _426  and  _427
REMARK  178  A    between atoms: _426  and  _429
REMARK  179  A    between atoms: _429  and  _430
REMARK  180  A    between atoms: _430  and  _431
REMARK  181  A    between atoms: _436  and  _438
REMARK  182  A    between atoms: _438  and  _439
REMARK  183  A    between atoms: _438  and  _441
REMARK  184  A    between atoms: _441  and  _442
REMARK  185  A    between atoms: _445  and  _447
REMARK  186  A    between atoms: _447  and  _448
REMARK  187  A    between atoms: _447  and  _450
REMARK  188  A    between atoms: _450  and  _451
REMARK  189  A    between atoms: _454  and  _456
REMARK  190  A    between atoms: _456  and  _457
REMARK  191  A    between atoms: _456  and  _459
REMARK  192  A    between atoms: _459  and  _460
REMARK  193  A    between atoms: _460  and  _461
REMARK  194  A    between atoms: _460  and  _462
REMARK  195  A    between atoms: _461  and  MG_705
REMARK  196  A    between atoms: _465  and  _467
REMARK  197  A    between atoms: _467  and  _468
REMARK  198  A    between atoms: _467  and  _470
REMARK  199  A    between atoms: _470  and  _471
REMARK  200  A    between atoms: _474  and  _476
REMARK  201  A    between atoms: _476  and  _477
REMARK  202  A    between atoms: _476  and  _479
REMARK  203  A    between atoms: _479  and  _480
REMARK  204  A    between atoms: _480  and  _481
REMARK  205  A    between atoms: _481  and  _482
REMARK  206  A    between atoms: _491  and  _493
REMARK  207  A    between atoms: _493  and  _494
REMARK  208  A    between atoms: _493  and  _496
REMARK  209  A    between atoms: _496  and  _497
REMARK  210  A    between atoms: _497  and  _499
REMARK  211  A    between atoms: _499  and  MG_705
REMARK  212  A    between atoms: _500  and  _502
REMARK  213  A    between atoms: _502  and  _503
REMARK  214  A    between atoms: _502  and  _505
REMARK  215  A    between atoms: _505  and  _506
REMARK  216  A    between atoms: _506  and  _507
REMARK  217  A    between atoms: _510  and  _512
REMARK  218  A    between atoms: _512  and  _513
REMARK  219  A    between atoms: _512  and  _515
REMARK  220  A    between atoms: _515  and  _516
REMARK  221  A    between atoms: _519  and  _521
REMARK  222  A    between atoms: _521  and  _522
REMARK  223  A    between atoms: _521  and  _524
REMARK  224  A    between atoms: _524  and  _525
REMARK  225  A    between atoms: _530  and  _532
REMARK  226  A    between atoms: _532  and  _533
REMARK  227  A    between atoms: _532  and  _535
REMARK  228  A    between atoms: _535  and  _536
REMARK  229  A    between atoms: _536  and  _537
REMARK  230  A    between atoms: _537  and  _538
REMARK  231  A    between atoms: _547  and  _549
REMARK  232  A    between atoms: _549  and  _550
REMARK  233  A    between atoms: _549  and  _552
REMARK  234  A    between atoms: _552  and  _553
REMARK  235  A    between atoms: _558  and  _559
REMARK  236  A    between atoms: _561  and  _563
REMARK  237  A    between atoms: _563  and  _564
REMARK  238  A    between atoms: _563  and  _566
REMARK  239  A    between atoms: _569  and  _571
REMARK  240  A    between atoms: _571  and  _572
REMARK  241  A    between atoms: _571  and  _574
REMARK  242  A    between atoms: _574  and  _575
REMARK  243  A    between atoms: _575  and  _576
REMARK  244  A    between atoms: _578  and  _580
REMARK  245  A    between atoms: _580  and  _581
REMARK  246  A    between atoms: _580  and  _583
REMARK  247  A    between atoms: _583  and  _584
REMARK  248  A    between atoms: _587  and  _589
REMARK  249  A    between atoms: _589  and  _590
REMARK  250  A    between atoms: _589  and  _592
REMARK  251  A    between atoms: _595  and  _597
REMARK  252  A    between atoms: _597  and  _598
REMARK  253  A    between atoms: _597  and  _600
REMARK  254  A    between atoms: _600  and  _601
REMARK  255  A    between atoms: _607  and  _609
REMARK  256  A    between atoms: _609  and  _610
REMARK  257  A    between atoms: _613  and  _615
REMARK  258  A    between atoms: _615  and  _616
REMARK  259  A    between atoms: _615  and  _618
REMARK  260  A    between atoms: _618  and  _619
REMARK  261  A    between atoms: _619  and  _620
REMARK  262  A    between atoms: _625  and  _627
REMARK  263  A    between atoms: _627  and  _628
REMARK  264  A    between atoms: _627  and  _630
REMARK  265  A    between atoms: _630  and  _631
REMARK  266  A    between atoms: _634  and  _636
REMARK  267  A    between atoms: _636  and  _637
REMARK  268  A    between atoms: _636  and  _639
REMARK  269  A    between atoms: _639  and  _640
REMARK  270  A    between atoms: _643  and  _645
REMARK  271  A    between atoms: _645  and  _646
REMARK  272  A    between atoms: _645  and  _648
REMARK  273  A    between atoms: _648  and  _649
REMARK  274  A    between atoms: _649  and  _650
REMARK  275  A    between atoms: _653  and  _655
REMARK  276  A    between atoms: _655  and  _656
REMARK  277  A    between atoms: _659  and  _661
REMARK  278  A    between atoms: _661  and  _662
REMARK  279  A    between atoms: _665  and  _667
REMARK  280  A    between atoms: _667  and  _668
REMARK  281  A    between atoms: _667  and  _670
REMARK  282  A    between atoms: _670  and  _671
REMARK  283  A    between atoms: _676  and  _677
REMARK  284  A    between atoms: _679  and  _681
REMARK  285  A    between atoms: _681  and  _682
REMARK  286  A    between atoms: _681  and  _684
REMARK  287  A    between atoms: _684  and  _685
REMARK  288  A    between atoms: _688  and  _690
REMARK  289  A    between atoms: _690  and  _691
REMARK  290  A    between atoms: _690  and  _693
REMARK  291  A    between atoms: _693  and  _694
REMARK  292  A    between atoms: _694  and  _695
REMARK  293  A    between atoms: _695  and  _696
REMARK                            x       y       z     vdW  Elec       q    Type
REMARK                         _______ _______ _______ _____ _____    ______ ____
ROOT
ATOM      1  O   HOH     1      20.967  47.271  42.777  0.00  0.00    +0.000 OA
ENDROOT
TORSDOF 0
REMARK  Name = ../refined-set-2016/2zcr/2zcr_pocket.pdb
REMARK  293 active torsions:
REMARK  status: ('A' for Active; 'I' for Inactive)
REMARK    1  A    between atoms: _1  and  _3
REMARK    2  A    between atoms: _3  and  _4
REMARK    3  A    between atoms: _3  and  _6
REMARK    4  A    between atoms: _6  and  _7
REMARK    5  A    between atoms: _7  and  _8
REMARK    6  A    between atoms: _10  and  _12
REMARK    7  A    between atoms: _12  and  _13
REMARK    8  A    between atoms: _12  and  _15
REMARK    9  A    between atoms: _15  and  _16
REMARK   10  A    between atoms: _21  and  _23
REMARK   11  A    between atoms: _23  and  _24
REMARK   12  A    between atoms: _23  and  _26
REMARK   13  A    between atoms: _26  and  _27
REMARK   14  A    between atoms: _29  and  _31
REMARK   15  A    between atoms: _31  and  _32
REMARK   16  A    between atoms: _31  and  _34
REMARK   17  A    between atoms: _34  and  _35
REMARK   18  A    between atoms: _35  and  _36
REMARK   19  A    between atoms: _36  and  _37
REMARK   20  A    between atoms: _37  and  _38
REMARK   21  A    between atoms: _42  and  _44
REMARK   22  A    between atoms: _44  and  _45
REMARK   23  A    between atoms: _44  and  _47
REMARK   24  A    between atoms: _47  and  _48
REMARK   25  A    between atoms: _50  and  _52
REMARK   26  A    between atoms: _52  and  _53
REMARK   27  A    between atoms: _52  and  _55
REMARK   28  A    between atoms: _55  and  _56
REMARK   29  A    between atoms: _62  and  _64
REMARK   30  A    between atoms: _64  and  _65
REMARK   31  A    between atoms: _68  and  _70
REMARK   32  A    between atoms: _70  and  _71
REMARK   33  A    between atoms: _70  and  _73
REMARK   34  A    between atoms: _73  and  _74
REMARK   35  A    between atoms: _80  and  _82
REMARK   36  A    between atoms: _82  and  _83
REMARK   37  A    between atoms: _82  and  _85
REMARK   38  A    between atoms: _85  and  _86
REMARK   39  A    between atoms: _89  and  _91
REMARK   40  A    between atoms: _91  and  _92
REMARK   41  A    between atoms: _91  and  _94
REMARK   42  A    between atoms: _97  and  _99
REMARK   43  A    between atoms: _99  and  _100
REMARK   44  A    between atoms: _99  and  _102
REMARK   45  A    between atoms: _102  and  _103
REMARK   46  A    between atoms: _106  and  _108
REMARK   47  A    between atoms: _108  and  _109
REMARK   48  A    between atoms: _108  and  _111
REMARK   49  A    between atoms: _111  and  _112
REMARK   50  A    between atoms: _117  and  _118
REMARK   51  A    between atoms: _120  and  _122
REMARK   52  A    between atoms: _122  and  _123
REMARK   53  A    between atoms: _122  and  _125
REMARK   54  A    between atoms: _127  and  _129
REMARK   55  A    between atoms: _129  and  _130
REMARK   56  A    between atoms: _129  and  _132
REMARK   57  A    between atoms: _132  and  _133
REMARK   58  A    between atoms: _133  and  _134
REMARK   59  A    between atoms: _134  and  _135
REMARK   60  A    between atoms: _144  and  _146
REMARK   61  A    between atoms: _146  and  _147
REMARK   62  A    between atoms: _146  and  _149
REMARK   63  A    between atoms: _149  and  _150
REMARK   64  A    between atoms: _153  and  _155
REMARK   65  A    between atoms: _155  and  _156
REMARK   66  A    between atoms: _155  and  _158
REMARK   67  A    between atoms: _158  and  _159
REMARK   68  A    between atoms: _162  and  _164
REMARK   69  A    between atoms: _164  and  _165
REMARK   70  A    between atoms: _164  and  _167
REMARK   71  A    between atoms: _167  and  _168
REMARK   72  A    between atoms: _171  and  _173
REMARK   73  A    between atoms: _173  and  _174
REMARK   74  A    between atoms: _173  and  _176
REMARK   75  A    between atoms: _179  and  _181
REMARK   76  A    between atoms: _181  and  _182
REMARK   77  A    between atoms: _181  and  _184
REMARK   78  A    between atoms: _184  and  _185
REMARK   79  A    between atoms: _188  and  _190
REMARK   80  A    between atoms: _190  and  _191
REMARK   81  A    between atoms: _190  and  _193
REMARK   82  A    between atoms: _193  and  _194
REMARK   83  A    between atoms: _199  and  _200
REMARK   84  A    between atoms: _202  and  _204
REMARK   85  A    between atoms: _204  and  _205
REMARK   86  A    between atoms: _204  and  _207
REMARK   87  A    between atoms: _209  and  _211
REMARK   88  A    between atoms: _211  and  _212
REMARK   89  A    between atoms: _211  and  _214
REMARK   90  A    between atoms: _217  and  _219
REMARK   91  A    between atoms: _219  and  _220
REMARK   92  A    between atoms: _223  and  _225
REMARK   93  A    between atoms: _225  and  _226
REMARK   94  A    between atoms: _228  and  _230
REMARK   95  A    between atoms: _230  and  _231
REMARK   96  A    between atoms: _230  and  _233
REMARK   97  A    between atoms: _233  and  _234
REMARK   98  A    between atoms: _237  and  _239
REMARK   99  A    between atoms: _239  and  _240
REMARK  100  A    between atoms: _239  and  _242
REMARK  101  A    between atoms: _245  and  _247
REMARK  102  A    between atoms: _247  and  _248
REMARK  103  A    between atoms: _250  and  _252
REMARK  104  A    between atoms: _252  and  _253
REMARK  105  A    between atoms: _252  and  _255
REMARK  106  A    between atoms: _255  and  _256
REMARK  107  A    between atoms: _256  and  _257
REMARK  108  A    between atoms: _260  and  _262
REMARK  109  A    between atoms: _262  and  _263
REMARK  110  A    between atoms: _262  and  _265
REMARK  111  A    between atoms: _268  and  _270
REMARK  112  A    between atoms: _270  and  _271
REMARK  113  A    between atoms: _270  and  _273
REMARK  114  A    between atoms: _273  and  _274
REMARK  115  A    between atoms: _277  and  _279
REMARK  116  A    between atoms: _279  and  _280
REMARK  117  A    between atoms: _279  and  _282
REMARK  118  A    between atoms: _282  and  _283
REMARK  119  A    between atoms: _286  and  _288
REMARK  120  A    between atoms: _288  and  _289
REMARK  121  A    between atoms: _288  and  _291
REMARK  122  A    between atoms: _291  and  _292
REMARK  123  A    between atoms: _295  and  _297
REMARK  124  A    between atoms: _297  and  _298
REMARK  125  A    between atoms: _297  and  _300
REMARK  126  A    between atoms: _300  and  _301
REMARK  127  A    between atoms: _304  and  _306
REMARK  128  A    between atoms: _306  and  _307
REMARK  129  A    between atoms: _306  and  _309
REMARK  130  A    between atoms: _309  and  _310
REMARK  131  A    between atoms: _312  and  _314
REMARK  132  A    between atoms: _314  and  _315
REMARK  133  A    between atoms: _314  and  _317
REMARK  134  A    between atoms: _317  and  _318
REMARK  135  A    between atoms: _321  and  _323
REMARK  136  A    between atoms: _323  and  _324
REMARK  137  A    between atoms: _323  and  _326
REMARK  138  A    between atoms: _326  and  _327
REMARK  139  A    between atoms: _332  and  _333
REMARK  140  A    between atoms: _335  and  _337
REMARK  141  A    between atoms: _337  and  _338
REMARK  142  A    between atoms: _337  and  _340
REMARK  143  A    between atoms: _343  and  _345
REMARK  144  A    between atoms: _345  and  _346
REMARK  145  A    between atoms: _349  and  _351
REMARK  146  A    between atoms: _351  and  _352
REMARK  147  A    between atoms: _351  and  _354
REMARK  148  A    between atoms: _354  and  _355
REMARK  149  A    between atoms: _355  and  _356
REMARK  150  A    between atoms: _356  and  _357
REMARK  151  A    between atoms: _366  and  _368
REMARK  152  A    between atoms: _368  and  _369
REMARK  153  A    between atoms: _368  and  _371
REMARK  154  A    between atoms: _371  and  _372
REMARK  155  A    between atoms: _372  and  _373
REMARK  156  A    between atoms: _373  and  _374
REMARK  157  A    between atoms: _383  and  _385
REMARK  158  A    between atoms: _385  and  _386
REMARK  159  A    between atoms: _385  and  _388
REMARK  160  A    between atoms: _388  and  _389
REMARK  161  A    between atoms: _392  and  _394
REMARK  162  A    between atoms: _394  and  _395
REMARK  163  A    between atoms: _397  and  _399
REMARK  164  A    between atoms: _399  and  _400
REMARK  165  A    between atoms: _399  and  _402
REMARK  166  A    between atoms: _402  and  _403
REMARK  167  A    between atoms: _403  and  _404
REMARK  168  A    between atoms: _407  and  _409
REMARK  169  A    between atoms: _409  and  _410
REMARK  170  A    between atoms: _409  and  _412
REMARK  171  A    between atoms: _412  and  _413
REMARK  172  A    between atoms: _415  and  _417
REMARK  173  A    between atoms: _417  and  _418
REMARK  174  A    between atoms: _417  and  _420
REMARK  175  A    between atoms: _420  and  _421
REMARK  176  A    between atoms: _424  and  _426
REMARK  177  A    between atoms: _426  and  _427
REMARK  178  A    between atoms: _426  and  _429
REMARK  179  A    between atoms: _429  and  _430
REMARK  180  A    between atoms: _430  and  _431
REMARK  181  A    between atoms: _436  and  _438
REMARK  182  A    between atoms: _438  and  _439
REMARK  183  A    between atoms: _438  and  _441
REMARK  184  A    between atoms: _441  and  _442
REMARK  185  A    between atoms: _445  and  _447
REMARK  186  A    between atoms: _447  and  _448
REMARK  187  A    between atoms: _447  and  _450
REMARK  188  A    between atoms: _450  and  _451
REMARK  189  A    between atoms: _454  and  _456
REMARK  190  A    between atoms: _456  and  _457
REMARK  191  A    between atoms: _456  and  _459
REMARK  192  A    between atoms: _459  and  _460
REMARK  193  A    between atoms: _460  and  _461
REMARK  194  A    between atoms: _460  and  _462
REMARK  195  A    between atoms: _461  and  MG_705
REMARK  196  A    between atoms: _465  and  _467
REMARK  197  A    between atoms: _467  and  _468
REMARK  198  A    between atoms: _467  and  _470
REMARK  199  A    between atoms: _470  and  _471
REMARK  200  A    between atoms: _474  and  _476
REMARK  201  A    between atoms: _476  and  _477
REMARK  202  A    between atoms: _476  and  _479
REMARK  203  A    between atoms: _479  and  _480
REMARK  204  A    between atoms: _480  and  _481
REMARK  205  A    between atoms: _481  and  _482
REMARK  206  A    between atoms: _491  and  _493
REMARK  207  A    between atoms: _493  and  _494
REMARK  208  A    between atoms: _493  and  _496
REMARK  209  A    between atoms: _496  and  _497
REMARK  210  A    between atoms: _497  and  _499
REMARK  211  A    between atoms: _499  and  MG_705
REMARK  212  A    between atoms: _500  and  _502
REMARK  213  A    between atoms: _502  and  _503
REMARK  214  A    between atoms: _502  and  _505
REMARK  215  A    between atoms: _505  and  _506
REMARK  216  A    between atoms: _506  and  _507
REMARK  217  A    between atoms: _510  and  _512
REMARK  218  A    between atoms: _512  and  _513
REMARK  219  A    between atoms: _512  and  _515
REMARK  220  A    between atoms: _515  and  _516
REMARK  221  A    between atoms: _519  and  _521
REMARK  222  A    between atoms: _521  and  _522
REMARK  223  A    between atoms: _521  and  _524
REMARK  224  A    between atoms: _524  and  _525
REMARK  225  A    between atoms: _530  and  _532
REMARK  226  A    between atoms: _532  and  _533
REMARK  227  A    between atoms: _532  and  _535
REMARK  228  A    between atoms: _535  and  _536
REMARK  229  A    between atoms: _536  and  _537
REMARK  230  A    between atoms: _537  and  _538
REMARK  231  A    between atoms: _547  and  _549
REMARK  232  A    between atoms: _549  and  _550
REMARK  233  A    between atoms: _549  and  _552
REMARK  234  A    between atoms: _552  and  _553
REMARK  235  A    between atoms: _558  and  _559
REMARK  236  A    between atoms: _561  and  _563
REMARK  237  A    between atoms: _563  and  _564
REMARK  238  A    between atoms: _563  and  _566
REMARK  239  A    between atoms: _569  and  _571
REMARK  240  A    between atoms: _571  and  _572
REMARK  241  A    between atoms: _571  and  _574
REMARK  242  A    between atoms: _574  and  _575
REMARK  243  A    between atoms: _575  and  _576
REMARK  244  A    between atoms: _578  and  _580
REMARK  245  A    between atoms: _580  and  _581
REMARK  246  A    between atoms: _580  and  _583
REMARK  247  A    between atoms: _583  and  _584
REMARK  248  A    between atoms: _587  and  _589
REMARK  249  A    between atoms: _589  and  _590
REMARK  250  A    between atoms: _589  and  _592
REMARK  251  A    between atoms: _595  and  _597
REMARK  252  A    between atoms: _597  and  _598
REMARK  253  A    between atoms: _597  and  _600
REMARK  254  A    between atoms: _600  and  _601
REMARK  255  A    between atoms: _607  and  _609
REMARK  256  A    between atoms: _609  and  _610
REMARK  257  A    between atoms: _613  and  _615
REMARK  258  A    between atoms: _615  and  _616
REMARK  259  A    between atoms: _615  and  _618
REMARK  260  A    between atoms: _618  and  _619
REMARK  261  A    between atoms: _619  and  _620
REMARK  262  A    between atoms: _625  and  _627
REMARK  263  A    between atoms: _627  and  _628
REMARK  264  A    between atoms: _627  and  _630
REMARK  265  A    between atoms: _630  and  _631
REMARK  266  A    between atoms: _634  and  _636
REMARK  267  A    between atoms: _636  and  _637
REMARK  268  A    between atoms: _636  and  _639
REMARK  269  A    between atoms: _639  and  _640
REMARK  270  A    between atoms: _643  and  _645
REMARK  271  A    between atoms: _645  and  _646
REMARK  272  A    between atoms: _645  and  _648
REMARK  273  A    between atoms: _648  and  _649
REMARK  274  A    between atoms: _649  and  _650
REMARK  275  A    between atoms: _653  and  _655
REMARK  276  A    between atoms: _655  and  _656
REMARK  277  A    between atoms: _659  and  _661
REMARK  278  A    between atoms: _661  and  _662
REMARK  279  A    between atoms: _665  and  _667
REMARK  280  A    between atoms: _667  and  _668
REMARK  281  A    between atoms: _667  and  _670
REMARK  282  A    between atoms: _670  and  _671
REMARK  283  A    between atoms: _676  and  _677
REMARK  284  A    between atoms: _679  and  _681
REMARK  285  A    between atoms: _681  and  _682
REMARK  286  A    between atoms: _681  and  _684
REMARK  287  A    between atoms: _684  and  _685
REMARK  288  A    between atoms: _688  and  _690
REMARK  289  A    between atoms: _690  and  _691
REMARK  290  A    between atoms: _690  and  _693
REMARK  291  A    between atoms: _693  and  _694
REMARK  292  A    between atoms: _694  and  _695
REMARK  293  A    between atoms: _695  and  _696
REMARK                            x       y       z     vdW  Elec       q    Type
REMARK                         _______ _______ _______ _____ _____    ______ ____
ROOT
ATOM      1  O   HOH     1      20.018  48.346  33.905  0.00  0.00    +0.000 OA
ENDROOT
TORSDOF 0
REMARK  Name = ../refined-set-2016/2zcr/2zcr_pocket.pdb
REMARK  293 active torsions:
REMARK  status: ('A' for Active; 'I' for Inactive)
REMARK    1  A    between atoms: _1  and  _3
REMARK    2  A    between atoms: _3  and  _4
REMARK    3  A    between atoms: _3  and  _6
REMARK    4  A    between atoms: _6  and  _7
REMARK    5  A    between atoms: _7  and  _8
REMARK    6  A    between atoms: _10  and  _12
REMARK    7  A    between atoms: _12  and  _13
REMARK    8  A    between atoms: _12  and  _15
REMARK    9  A    between atoms: _15  and  _16
REMARK   10  A    between atoms: _21  and  _23
REMARK   11  A    between atoms: _23  and  _24
REMARK   12  A    between atoms: _23  and  _26
REMARK   13  A    between atoms: _26  and  _27
REMARK   14  A    between atoms: _29  and  _31
REMARK   15  A    between atoms: _31  and  _32
REMARK   16  A    between atoms: _31  and  _34
REMARK   17  A    between atoms: _34  and  _35
REMARK   18  A    between atoms: _35  and  _36
REMARK   19  A    between atoms: _36  and  _37
REMARK   20  A    between atoms: _37  and  _38
REMARK   21  A    between atoms: _42  and  _44
REMARK   22  A    between atoms: _44  and  _45
REMARK   23  A    between atoms: _44  and  _47
REMARK   24  A    between atoms: _47  and  _48
REMARK   25  A    between atoms: _50  and  _52
REMARK   26  A    between atoms: _52  and  _53
REMARK   27  A    between atoms: _52  and  _55
REMARK   28  A    between atoms: _55  and  _56
REMARK   29  A    between atoms: _62  and  _64
REMARK   30  A    between atoms: _64  and  _65
REMARK   31  A    between atoms: _68  and  _70
REMARK   32  A    between atoms: _70  and  _71
REMARK   33  A    between atoms: _70  and  _73
REMARK   34  A    between atoms: _73  and  _74
REMARK   35  A    between atoms: _80  and  _82
REMARK   36  A    between atoms: _82  and  _83
REMARK   37  A    between atoms: _82  and  _85
REMARK   38  A    between atoms: _85  and  _86
REMARK   39  A    between atoms: _89  and  _91
REMARK   40  A    between atoms: _91  and  _92
REMARK   41  A    between atoms: _91  and  _94
REMARK   42  A    between atoms: _97  and  _99
REMARK   43  A    between atoms: _99  and  _100
REMARK   44  A    between atoms: _99  and  _102
REMARK   45  A    between atoms: _102  and  _103
REMARK   46  A    between atoms: _106  and  _108
REMARK   47  A    between atoms: _108  and  _109
REMARK   48  A    between atoms: _108  and  _111
REMARK   49  A    between atoms: _111  and  _112
REMARK   50  A    between atoms: _117  and  _118
REMARK   51  A    between atoms: _120  and  _122
REMARK   52  A    between atoms: _122  and  _123
REMARK   53  A    between atoms: _122  and  _125
REMARK   54  A    between atoms: _127  and  _129
REMARK   55  A    between atoms: _129  and  _130
REMARK   56  A    between atoms: _129  and  _132
REMARK   57  A    between atoms: _132  and  _133
REMARK   58  A    between atoms: _133  and  _134
REMARK   59  A    between atoms: _134  and  _135
REMARK   60  A    between atoms: _144  and  _146
REMARK   61  A    between atoms: _146  and  _147
REMARK   62  A    between atoms: _146  and  _149
REMARK   63  A    between atoms: _149  and  _150
REMARK   64  A    between atoms: _153  and  _155
REMARK   65  A    between atoms: _155  and  _156
REMARK   66  A    between atoms: _155  and  _158
REMARK   67  A    between atoms: _158  and  _159
REMARK   68  A    between atoms: _162  and  _164
REMARK   69  A    between atoms: _164  and  _165
REMARK   70  A    between atoms: _164  and  _167
REMARK   71  A    between atoms: _167  and  _168
REMARK   72  A    between atoms: _171  and  _173
REMARK   73  A    between atoms: _173  and  _174
REMARK   74  A    between atoms: _173  and  _176
REMARK   75  A    between atoms: _179  and  _181
REMARK   76  A    between atoms: _181  and  _182
REMARK   77  A    between atoms: _181  and  _184
REMARK   78  A    between atoms: _184  and  _185
REMARK   79  A    between atoms: _188  and  _190
REMARK   80  A    between atoms: _190  and  _191
REMARK   81  A    between atoms: _190  and  _193
REMARK   82  A    between atoms: _193  and  _194
REMARK   83  A    between atoms: _199  and  _200
REMARK   84  A    between atoms: _202  and  _204
REMARK   85  A    between atoms: _204  and  _205
REMARK   86  A    between atoms: _204  and  _207
REMARK   87  A    between atoms: _209  and  _211
REMARK   88  A    between atoms: _211  and  _212
REMARK   89  A    between atoms: _211  and  _214
REMARK   90  A    between atoms: _217  and  _219
REMARK   91  A    between atoms: _219  and  _220
REMARK   92  A    between atoms: _223  and  _225
REMARK   93  A    between atoms: _225  and  _226
REMARK   94  A    between atoms: _228  and  _230
REMARK   95  A    between atoms: _230  and  _231
REMARK   96  A    between atoms: _230  and  _233
REMARK   97  A    between atoms: _233  and  _234
REMARK   98  A    between atoms: _237  and  _239
REMARK   99  A    between atoms: _239  and  _240
REMARK  100  A    between atoms: _239  and  _242
REMARK  101  A    between atoms: _245  and  _247
REMARK  102  A    between atoms: _247  and  _248
REMARK  103  A    between atoms: _250  and  _252
REMARK  104  A    between atoms: _252  and  _253
REMARK  105  A    between atoms: _252  and  _255
REMARK  106  A    between atoms: _255  and  _256
REMARK  107  A    between atoms: _256  and  _257
REMARK  108  A    between atoms: _260  and  _262
REMARK  109  A    between atoms: _262  and  _263
REMARK  110  A    between atoms: _262  and  _265
REMARK  111  A    between atoms: _268  and  _270
REMARK  112  A    between atoms: _270  and  _271
REMARK  113  A    between atoms: _270  and  _273
REMARK  114  A    between atoms: _273  and  _274
REMARK  115  A    between atoms: _277  and  _279
REMARK  116  A    between atoms: _279  and  _280
REMARK  117  A    between atoms: _279  and  _282
REMARK  118  A    between atoms: _282  and  _283
REMARK  119  A    between atoms: _286  and  _288
REMARK  120  A    between atoms: _288  and  _289
REMARK  121  A    between atoms: _288  and  _291
REMARK  122  A    between atoms: _291  and  _292
REMARK  123  A    between atoms: _295  and  _297
REMARK  124  A    between atoms: _297  and  _298
REMARK  125  A    between atoms: _297  and  _300
REMARK  126  A    between atoms: _300  and  _301
REMARK  127  A    between atoms: _304  and  _306
REMARK  128  A    between atoms: _306  and  _307
REMARK  129  A    between atoms: _306  and  _309
REMARK  130  A    between atoms: _309  and  _310
REMARK  131  A    between atoms: _312  and  _314
REMARK  132  A    between atoms: _314  and  _315
REMARK  133  A    between atoms: _314  and  _317
REMARK  134  A    between atoms: _317  and  _318
REMARK  135  A    between atoms: _321  and  _323
REMARK  136  A    between atoms: _323  and  _324
REMARK  137  A    between atoms: _323  and  _326
REMARK  138  A    between atoms: _326  and  _327
REMARK  139  A    between atoms: _332  and  _333
REMARK  140  A    between atoms: _335  and  _337
REMARK  141  A    between atoms: _337  and  _338
REMARK  142  A    between atoms: _337  and  _340
REMARK  143  A    between atoms: _343  and  _345
REMARK  144  A    between atoms: _345  and  _346
REMARK  145  A    between atoms: _349  and  _351
REMARK  146  A    between atoms: _351  and  _352
REMARK  147  A    between atoms: _351  and  _354
REMARK  148  A    between atoms: _354  and  _355
REMARK  149  A    between atoms: _355  and  _356
REMARK  150  A    between atoms: _356  and  _357
REMARK  151  A    between atoms: _366  and  _368
REMARK  152  A    between atoms: _368  and  _369
REMARK  153  A    between atoms: _368  and  _371
REMARK  154  A    between atoms: _371  and  _372
REMARK  155  A    between atoms: _372  and  _373
REMARK  156  A    between atoms: _373  and  _374
REMARK  157  A    between atoms: _383  and  _385
REMARK  158  A    between atoms: _385  and  _386
REMARK  159  A    between atoms: _385  and  _388
REMARK  160  A    between atoms: _388  and  _389
REMARK  161  A    between atoms: _392  and  _394
REMARK  162  A    between atoms: _394  and  _395
REMARK  163  A    between atoms: _397  and  _399
REMARK  164  A    between atoms: _399  and  _400
REMARK  165  A    between atoms: _399  and  _402
REMARK  166  A    between atoms: _402  and  _403
REMARK  167  A    between atoms: _403  and  _404
REMARK  168  A    between atoms: _407  and  _409
REMARK  169  A    between atoms: _409  and  _410
REMARK  170  A    between atoms: _409  and  _412
REMARK  171  A    between atoms: _412  and  _413
REMARK  172  A    between atoms: _415  and  _417
REMARK  173  A    between atoms: _417  and  _418
REMARK  174  A    between atoms: _417  and  _420
REMARK  175  A    between atoms: _420  and  _421
REMARK  176  A    between atoms: _424  and  _426
REMARK  177  A    between atoms: _426  and  _427
REMARK  178  A    between atoms: _426  and  _429
REMARK  179  A    between atoms: _429  and  _430
REMARK  180  A    between atoms: _430  and  _431
REMARK  181  A    between atoms: _436  and  _438
REMARK  182  A    between atoms: _438  and  _439
REMARK  183  A    between atoms: _438  and  _441
REMARK  184  A    between atoms: _441  and  _442
REMARK  185  A    between atoms: _445  and  _447
REMARK  186  A    between atoms: _447  and  _448
REMARK  187  A    between atoms: _447  and  _450
REMARK  188  A    between atoms: _450  and  _451
REMARK  189  A    between atoms: _454  and  _456
REMARK  190  A    between atoms: _456  and  _457
REMARK  191  A    between atoms: _456  and  _459
REMARK  192  A    between atoms: _459  and  _460
REMARK  193  A    between atoms: _460  and  _461
REMARK  194  A    between atoms: _460  and  _462
REMARK  195  A    between atoms: _461  and  MG_705
REMARK  196  A    between atoms: _465  and  _467
REMARK  197  A    between atoms: _467  and  _468
REMARK  198  A    between atoms: _467  and  _470
REMARK  199  A    between atoms: _470  and  _471
REMARK  200  A    between atoms: _474  and  _476
REMARK  201  A    between atoms: _476  and  _477
REMARK  202  A    between atoms: _476  and  _479
REMARK  203  A    between atoms: _479  and  _480
REMARK  204  A    between atoms: _480  and  _481
REMARK  205  A    between atoms: _481  and  _482
REMARK  206  A    between atoms: _491  and  _493
REMARK  207  A    between atoms: _493  and  _494
REMARK  208  A    between atoms: _493  and  _496
REMARK  209  A    between atoms: _496  and  _497
REMARK  210  A    between atoms: _497  and  _499
REMARK  211  A    between atoms: _499  and  MG_705
REMARK  212  A    between atoms: _500  and  _502
REMARK  213  A    between atoms: _502  and  _503
REMARK  214  A    between atoms: _502  and  _505
REMARK  215  A    between atoms: _505  and  _506
REMARK  216  A    between atoms: _506  and  _507
REMARK  217  A    between atoms: _510  and  _512
REMARK  218  A    between atoms: _512  and  _513
REMARK  219  A    between atoms: _512  and  _515
REMARK  220  A    between atoms: _515  and  _516
REMARK  221  A    between atoms: _519  and  _521
REMARK  222  A    between atoms: _521  and  _522
REMARK  223  A    between atoms: _521  and  _524
REMARK  224  A    between atoms: _524  and  _525
REMARK  225  A    between atoms: _530  and  _532
REMARK  226  A    between atoms: _532  and  _533
REMARK  227  A    between atoms: _532  and  _535
REMARK  228  A    between atoms: _535  and  _536
REMARK  229  A    between atoms: _536  and  _537
REMARK  230  A    between atoms: _537  and  _538
REMARK  231  A    between atoms: _547  and  _549
REMARK  232  A    between atoms: _549  and  _550
REMARK  233  A    between atoms: _549  and  _552
REMARK  234  A    between atoms: _552  and  _553
REMARK  235  A    between atoms: _558  and  _559
REMARK  236  A    between atoms: _561  and  _563
REMARK  237  A    between atoms: _563  and  _564
REMARK  238  A    between atoms: _563  and  _566
REMARK  239  A    between atoms: _569  and  _571
REMARK  240  A    between atoms: _571  and  _572
REMARK  241  A    between atoms: _571  and  _574
REMARK  242  A    between atoms: _574  and  _575
REMARK  243  A    between atoms: _575  and  _576
REMARK  244  A    between atoms: _578  and  _580
REMARK  245  A    between atoms: _580  and  _581
REMARK  246  A    between atoms: _580  and  _583
REMARK  247  A    between atoms: _583  and  _584
REMARK  248  A    between atoms: _587  and  _589
REMARK  249  A    between atoms: _589  and  _590
REMARK  250  A    between atoms: _589  and  _592
REMARK  251  A    between atoms: _595  and  _597
REMARK  252  A    between atoms: _597  and  _598
REMARK  253  A    between atoms: _597  and  _600
REMARK  254  A    between atoms: _600  and  _601
REMARK  255  A    between atoms: _607  and  _609
REMARK  256  A    between atoms: _609  and  _610
REMARK  257  A    between atoms: _613  and  _615
REMARK  258  A    between atoms: _615  and  _616
REMARK  259  A    between atoms: _615  and  _618
REMARK  260  A    between atoms: _618  and  _619
REMARK  261  A    between atoms: _619  and  _620
REMARK  262  A    between atoms: _625  and  _627
REMARK  263  A    between atoms: _627  and  _628
REMARK  264  A    between atoms: _627  and  _630
REMARK  265  A    between atoms: _630  and  _631
REMARK  266  A    between atoms: _634  and  _636
REMARK  267  A    between atoms: _636  and  _637
REMARK  268  A    between atoms: _636  and  _639
REMARK  269  A    between atoms: _639  and  _640
REMARK  270  A    between atoms: _643  and  _645
REMARK  271  A    between atoms: _645  and  _646
REMARK  272  A    between atoms: _645  and  _648
REMARK  273  A    between atoms: _648  and  _649
REMARK  274  A    between atoms: _649  and  _650
REMARK  275  A    between atoms: _653  and  _655
REMARK  276  A    between atoms: _655  and  _656
REMARK  277  A    between atoms: _659  and  _661
REMARK  278  A    between atoms: _661  and  _662
REMARK  279  A    between atoms: _665  and  _667
REMARK  280  A    between atoms: _667  and  _668
REMARK  281  A    between atoms: _667  and  _670
REMARK  282  A    between atoms: _670  and  _671
REMARK  283  A    between atoms: _676  and  _677
REMARK  284  A    between atoms: _679  and  _681
REMARK  285  A    between atoms: _681  and  _682
REMARK  286  A    between atoms: _681  and  _684
REMARK  287  A    between atoms: _684  and  _685
REMARK  288  A    between atoms: _688  and  _690
REMARK  289  A    between atoms: _690  and  _691
REMARK  290  A    between atoms: _690  and  _693
REMARK  291  A    between atoms: _693  and  _694
REMARK  292  A    between atoms: _694  and  _695
REMARK  293  A    between atoms: _695  and  _696
REMARK                            x       y       z     vdW  Elec       q    Type
REMARK                         _______ _______ _______ _____ _____    ______ ____
ROOT
ATOM      1  O   HOH     1      17.824  50.932  35.129  0.00  0.00    +0.000 OA
ENDROOT
TORSDOF 0
REMARK  Name = ../refined-set-2016/2zcr/2zcr_pocket.pdb
REMARK  293 active torsions:
REMARK  status: ('A' for Active; 'I' for Inactive)
REMARK    1  A    between atoms: _1  and  _3
REMARK    2  A    between atoms: _3  and  _4
REMARK    3  A    between atoms: _3  and  _6
REMARK    4  A    between atoms: _6  and  _7
REMARK    5  A    between atoms: _7  and  _8
REMARK    6  A    between atoms: _10  and  _12
REMARK    7  A    between atoms: _12  and  _13
REMARK    8  A    between atoms: _12  and  _15
REMARK    9  A    between atoms: _15  and  _16
REMARK   10  A    between atoms: _21  and  _23
REMARK   11  A    between atoms: _23  and  _24
REMARK   12  A    between atoms: _23  and  _26
REMARK   13  A    between atoms: _26  and  _27
REMARK   14  A    between atoms: _29  and  _31
REMARK   15  A    between atoms: _31  and  _32
REMARK   16  A    between atoms: _31  and  _34
REMARK   17  A    between atoms: _34  and  _35
REMARK   18  A    between atoms: _35  and  _36
REMARK   19  A    between atoms: _36  and  _37
REMARK   20  A    between atoms: _37  and  _38
REMARK   21  A    between atoms: _42  and  _44
REMARK   22  A    between atoms: _44  and  _45
REMARK   23  A    between atoms: _44  and  _47
REMARK   24  A    between atoms: _47  and  _48
REMARK   25  A    between atoms: _50  and  _52
REMARK   26  A    between atoms: _52  and  _53
REMARK   27  A    between atoms: _52  and  _55
REMARK   28  A    between atoms: _55  and  _56
REMARK   29  A    between atoms: _62  and  _64
REMARK   30  A    between atoms: _64  and  _65
REMARK   31  A    between atoms: _68  and  _70
REMARK   32  A    between atoms: _70  and  _71
REMARK   33  A    between atoms: _70  and  _73
REMARK   34  A    between atoms: _73  and  _74
REMARK   35  A    between atoms: _80  and  _82
REMARK   36  A    between atoms: _82  and  _83
REMARK   37  A    between atoms: _82  and  _85
REMARK   38  A    between atoms: _85  and  _86
REMARK   39  A    between atoms: _89  and  _91
REMARK   40  A    between atoms: _91  and  _92
REMARK   41  A    between atoms: _91  and  _94
REMARK   42  A    between atoms: _97  and  _99
REMARK   43  A    between atoms: _99  and  _100
REMARK   44  A    between atoms: _99  and  _102
REMARK   45  A    between atoms: _102  and  _103
REMARK   46  A    between atoms: _106  and  _108
REMARK   47  A    between atoms: _108  and  _109
REMARK   48  A    between atoms: _108  and  _111
REMARK   49  A    between atoms: _111  and  _112
REMARK   50  A    between atoms: _117  and  _118
REMARK   51  A    between atoms: _120  and  _122
REMARK   52  A    between atoms: _122  and  _123
REMARK   53  A    between atoms: _122  and  _125
REMARK   54  A    between atoms: _127  and  _129
REMARK   55  A    between atoms: _129  and  _130
REMARK   56  A    between atoms: _129  and  _132
REMARK   57  A    between atoms: _132  and  _133
REMARK   58  A    between atoms: _133  and  _134
REMARK   59  A    between atoms: _134  and  _135
REMARK   60  A    between atoms: _144  and  _146
REMARK   61  A    between atoms: _146  and  _147
REMARK   62  A    between atoms: _146  and  _149
REMARK   63  A    between atoms: _149  and  _150
REMARK   64  A    between atoms: _153  and  _155
REMARK   65  A    between atoms: _155  and  _156
REMARK   66  A    between atoms: _155  and  _158
REMARK   67  A    between atoms: _158  and  _159
REMARK   68  A    between atoms: _162  and  _164
REMARK   69  A    between atoms: _164  and  _165
REMARK   70  A    between atoms: _164  and  _167
REMARK   71  A    between atoms: _167  and  _168
REMARK   72  A    between atoms: _171  and  _173
REMARK   73  A    between atoms: _173  and  _174
REMARK   74  A    between atoms: _173  and  _176
REMARK   75  A    between atoms: _179  and  _181
REMARK   76  A    between atoms: _181  and  _182
REMARK   77  A    between atoms: _181  and  _184
REMARK   78  A    between atoms: _184  and  _185
REMARK   79  A    between atoms: _188  and  _190
REMARK   80  A    between atoms: _190  and  _191
REMARK   81  A    between atoms: _190  and  _193
REMARK   82  A    between atoms: _193  and  _194
REMARK   83  A    between atoms: _199  and  _200
REMARK   84  A    between atoms: _202  and  _204
REMARK   85  A    between atoms: _204  and  _205
REMARK   86  A    between atoms: _204  and  _207
REMARK   87  A    between atoms: _209  and  _211
REMARK   88  A    between atoms: _211  and  _212
REMARK   89  A    between atoms: _211  and  _214
REMARK   90  A    between atoms: _217  and  _219
REMARK   91  A    between atoms: _219  and  _220
REMARK   92  A    between atoms: _223  and  _225
REMARK   93  A    between atoms: _225  and  _226
REMARK   94  A    between atoms: _228  and  _230
REMARK   95  A    between atoms: _230  and  _231
REMARK   96  A    between atoms: _230  and  _233
REMARK   97  A    between atoms: _233  and  _234
REMARK   98  A    between atoms: _237  and  _239
REMARK   99  A    between atoms: _239  and  _240
REMARK  100  A    between atoms: _239  and  _242
REMARK  101  A    between atoms: _245  and  _247
REMARK  102  A    between atoms: _247  and  _248
REMARK  103  A    between atoms: _250  and  _252
REMARK  104  A    between atoms: _252  and  _253
REMARK  105  A    between atoms: _252  and  _255
REMARK  106  A    between atoms: _255  and  _256
REMARK  107  A    between atoms: _256  and  _257
REMARK  108  A    between atoms: _260  and  _262
REMARK  109  A    between atoms: _262  and  _263
REMARK  110  A    between atoms: _262  and  _265
REMARK  111  A    between atoms: _268  and  _270
REMARK  112  A    between atoms: _270  and  _271
REMARK  113  A    between atoms: _270  and  _273
REMARK  114  A    between atoms: _273  and  _274
REMARK  115  A    between atoms: _277  and  _279
REMARK  116  A    between atoms: _279  and  _280
REMARK  117  A    between atoms: _279  and  _282
REMARK  118  A    between atoms: _282  and  _283
REMARK  119  A    between atoms: _286  and  _288
REMARK  120  A    between atoms: _288  and  _289
REMARK  121  A    between atoms: _288  and  _291
REMARK  122  A    between atoms: _291  and  _292
REMARK  123  A    between atoms: _295  and  _297
REMARK  124  A    between atoms: _297  and  _298
REMARK  125  A    between atoms: _297  and  _300
REMARK  126  A    between atoms: _300  and  _301
REMARK  127  A    between atoms: _304  and  _306
REMARK  128  A    between atoms: _306  and  _307
REMARK  129  A    between atoms: _306  and  _309
REMARK  130  A    between atoms: _309  and  _310
REMARK  131  A    between atoms: _312  and  _314
REMARK  132  A    between atoms: _314  and  _315
REMARK  133  A    between atoms: _314  and  _317
REMARK  134  A    between atoms: _317  and  _318
REMARK  135  A    between atoms: _321  and  _323
REMARK  136  A    between atoms: _323  and  _324
REMARK  137  A    between atoms: _323  and  _326
REMARK  138  A    between atoms: _326  and  _327
REMARK  139  A    between atoms: _332  and  _333
REMARK  140  A    between atoms: _335  and  _337
REMARK  141  A    between atoms: _337  and  _338
REMARK  142  A    between atoms: _337  and  _340
REMARK  143  A    between atoms: _343  and  _345
REMARK  144  A    between atoms: _345  and  _346
REMARK  145  A    between atoms: _349  and  _351
REMARK  146  A    between atoms: _351  and  _352
REMARK  147  A    between atoms: _351  and  _354
REMARK  148  A    between atoms: _354  and  _355
REMARK  149  A    between atoms: _355  and  _356
REMARK  150  A    between atoms: _356  and  _357
REMARK  151  A    between atoms: _366  and  _368
REMARK  152  A    between atoms: _368  and  _369
REMARK  153  A    between atoms: _368  and  _371
REMARK  154  A    between atoms: _371  and  _372
REMARK  155  A    between atoms: _372  and  _373
REMARK  156  A    between atoms: _373  and  _374
REMARK  157  A    between atoms: _383  and  _385
REMARK  158  A    between atoms: _385  and  _386
REMARK  159  A    between atoms: _385  and  _388
REMARK  160  A    between atoms: _388  and  _389
REMARK  161  A    between atoms: _392  and  _394
REMARK  162  A    between atoms: _394  and  _395
REMARK  163  A    between atoms: _397  and  _399
REMARK  164  A    between atoms: _399  and  _400
REMARK  165  A    between atoms: _399  and  _402
REMARK  166  A    between atoms: _402  and  _403
REMARK  167  A    between atoms: _403  and  _404
REMARK  168  A    between atoms: _407  and  _409
REMARK  169  A    between atoms: _409  and  _410
REMARK  170  A    between atoms: _409  and  _412
REMARK  171  A    between atoms: _412  and  _413
REMARK  172  A    between atoms: _415  and  _417
REMARK  173  A    between atoms: _417  and  _418
REMARK  174  A    between atoms: _417  and  _420
REMARK  175  A    between atoms: _420  and  _421
REMARK  176  A    between atoms: _424  and  _426
REMARK  177  A    between atoms: _426  and  _427
REMARK  178  A    between atoms: _426  and  _429
REMARK  179  A    between atoms: _429  and  _430
REMARK  180  A    between atoms: _430  and  _431
REMARK  181  A    between atoms: _436  and  _438
REMARK  182  A    between atoms: _438  and  _439
REMARK  183  A    between atoms: _438  and  _441
REMARK  184  A    between atoms: _441  and  _442
REMARK  185  A    between atoms: _445  and  _447
REMARK  186  A    between atoms: _447  and  _448
REMARK  187  A    between atoms: _447  and  _450
REMARK  188  A    between atoms: _450  and  _451
REMARK  189  A    between atoms: _454  and  _456
REMARK  190  A    between atoms: _456  and  _457
REMARK  191  A    between atoms: _456  and  _459
REMARK  192  A    between atoms: _459  and  _460
REMARK  193  A    between atoms: _460  and  _461
REMARK  194  A    between atoms: _460  and  _462
REMARK  195  A    between atoms: _461  and  MG_705
REMARK  196  A    between atoms: _465  and  _467
REMARK  197  A    between atoms: _467  and  _468
REMARK  198  A    between atoms: _467  and  _470
REMARK  199  A    between atoms: _470  and  _471
REMARK  200  A    between atoms: _474  and  _476
REMARK  201  A    between atoms: _476  and  _477
REMARK  202  A    between atoms: _476  and  _479
REMARK  203  A    between atoms: _479  and  _480
REMARK  204  A    between atoms: _480  and  _481
REMARK  205  A    between atoms: _481  and  _482
REMARK  206  A    between atoms: _491  and  _493
REMARK  207  A    between atoms: _493  and  _494
REMARK  208  A    between atoms: _493  and  _496
REMARK  209  A    between atoms: _496  and  _497
REMARK  210  A    between atoms: _497  and  _499
REMARK  211  A    between atoms: _499  and  MG_705
REMARK  212  A    between atoms: _500  and  _502
REMARK  213  A    between atoms: _502  and  _503
REMARK  214  A    between atoms: _502  and  _505
REMARK  215  A    between atoms: _505  and  _506
REMARK  216  A    between atoms: _506  and  _507
REMARK  217  A    between atoms: _510  and  _512
REMARK  218  A    between atoms: _512  and  _513
REMARK  219  A    between atoms: _512  and  _515
REMARK  220  A    between atoms: _515  and  _516
REMARK  221  A    between atoms: _519  and  _521
REMARK  222  A    between atoms: _521  and  _522
REMARK  223  A    between atoms: _521  and  _524
REMARK  224  A    between atoms: _524  and  _525
REMARK  225  A    between atoms: _530  and  _532
REMARK  226  A    between atoms: _532  and  _533
REMARK  227  A    between atoms: _532  and  _535
REMARK  228  A    between atoms: _535  and  _536
REMARK  229  A    between atoms: _536  and  _537
REMARK  230  A    between atoms: _537  and  _538
REMARK  231  A    between atoms: _547  and  _549
REMARK  232  A    between atoms: _549  and  _550
REMARK  233  A    between atoms: _549  and  _552
REMARK  234  A    between atoms: _552  and  _553
REMARK  235  A    between atoms: _558  and  _559
REMARK  236  A    between atoms: _561  and  _563
REMARK  237  A    between atoms: _563  and  _564
REMARK  238  A    between atoms: _563  and  _566
REMARK  239  A    between atoms: _569  and  _571
REMARK  240  A    between atoms: _571  and  _572
REMARK  241  A    between atoms: _571  and  _574
REMARK  242  A    between atoms: _574  and  _575
REMARK  243  A    between atoms: _575  and  _576
REMARK  244  A    between atoms: _578  and  _580
REMARK  245  A    between atoms: _580  and  _581
REMARK  246  A    between atoms: _580  and  _583
REMARK  247  A    between atoms: _583  and  _584
REMARK  248  A    between atoms: _587  and  _589
REMARK  249  A    between atoms: _589  and  _590
REMARK  250  A    between atoms: _589  and  _592
REMARK  251  A    between atoms: _595  and  _597
REMARK  252  A    between atoms: _597  and  _598
REMARK  253  A    between atoms: _597  and  _600
REMARK  254  A    between atoms: _600  and  _601
REMARK  255  A    between atoms: _607  and  _609
REMARK  256  A    between atoms: _609  and  _610
REMARK  257  A    between atoms: _613  and  _615
REMARK  258  A    between atoms: _615  and  _616
REMARK  259  A    between atoms: _615  and  _618
REMARK  260  A    between atoms: _618  and  _619
REMARK  261  A    between atoms: _619  and  _620
REMARK  262  A    between atoms: _625  and  _627
REMARK  263  A    between atoms: _627  and  _628
REMARK  264  A    between atoms: _627  and  _630
REMARK  265  A    between atoms: _630  and  _631
REMARK  266  A    between atoms: _634  and  _636
REMARK  267  A    between atoms: _636  and  _637
REMARK  268  A    between atoms: _636  and  _639
REMARK  269  A    between atoms: _639  and  _640
REMARK  270  A    between atoms: _643  and  _645
REMARK  271  A    between atoms: _645  and  _646
REMARK  272  A    between atoms: _645  and  _648
REMARK  273  A    between atoms: _648  and  _649
REMARK  274  A    between atoms: _649  and  _650
REMARK  275  A    between atoms: _653  and  _655
REMARK  276  A    between atoms: _655  and  _656
REMARK  277  A    between atoms: _659  and  _661
REMARK  278  A    between atoms: _661  and  _662
REMARK  279  A    between atoms: _665  and  _667
REMARK  280  A    between atoms: _667  and  _668
REMARK  281  A    between atoms: _667  and  _670
REMARK  282  A    between atoms: _670  and  _671
REMARK  283  A    between atoms: _676  and  _677
REMARK  284  A    between atoms: _679  and  _681
REMARK  285  A    between atoms: _681  and  _682
REMARK  286  A    between atoms: _681  and  _684
REMARK  287  A    between atoms: _684  and  _685
REMARK  288  A    between atoms: _688  and  _690
REMARK  289  A    between atoms: _690  and  _691
REMARK  290  A    between atoms: _690  and  _693
REMARK  291  A    between atoms: _693  and  _694
REMARK  292  A    between atoms: _694  and  _695
REMARK  293  A    between atoms: _695  and  _696
REMARK                            x       y       z     vdW  Elec       q    Type
REMARK                         _______ _______ _______ _____ _____    ______ ____
ROOT
ATOM      1  O   HOH     1      21.633  46.631  34.627  0.00  0.00    +0.000 OA
ENDROOT
TORSDOF 0
REMARK  Name = ../refined-set-2016/2zcr/2zcr_pocket.pdb
REMARK  293 active torsions:
REMARK  status: ('A' for Active; 'I' for Inactive)
REMARK    1  A    between atoms: _1  and  _3
REMARK    2  A    between atoms: _3  and  _4
REMARK    3  A    between atoms: _3  and  _6
REMARK    4  A    between atoms: _6  and  _7
REMARK    5  A    between atoms: _7  and  _8
REMARK    6  A    between atoms: _10  and  _12
REMARK    7  A    between atoms: _12  and  _13
REMARK    8  A    between atoms: _12  and  _15
REMARK    9  A    between atoms: _15  and  _16
REMARK   10  A    between atoms: _21  and  _23
REMARK   11  A    between atoms: _23  and  _24
REMARK   12  A    between atoms: _23  and  _26
REMARK   13  A    between atoms: _26  and  _27
REMARK   14  A    between atoms: _29  and  _31
REMARK   15  A    between atoms: _31  and  _32
REMARK   16  A    between atoms: _31  and  _34
REMARK   17  A    between atoms: _34  and  _35
REMARK   18  A    between atoms: _35  and  _36
REMARK   19  A    between atoms: _36  and  _37
REMARK   20  A    between atoms: _37  and  _38
REMARK   21  A    between atoms: _42  and  _44
REMARK   22  A    between atoms: _44  and  _45
REMARK   23  A    between atoms: _44  and  _47
REMARK   24  A    between atoms: _47  and  _48
REMARK   25  A    between atoms: _50  and  _52
REMARK   26  A    between atoms: _52  and  _53
REMARK   27  A    between atoms: _52  and  _55
REMARK   28  A    between atoms: _55  and  _56
REMARK   29  A    between atoms: _62  and  _64
REMARK   30  A    between atoms: _64  and  _65
REMARK   31  A    between atoms: _68  and  _70
REMARK   32  A    between atoms: _70  and  _71
REMARK   33  A    between atoms: _70  and  _73
REMARK   34  A    between atoms: _73  and  _74
REMARK   35  A    between atoms: _80  and  _82
REMARK   36  A    between atoms: _82  and  _83
REMARK   37  A    between atoms: _82  and  _85
REMARK   38  A    between atoms: _85  and  _86
REMARK   39  A    between atoms: _89  and  _91
REMARK   40  A    between atoms: _91  and  _92
REMARK   41  A    between atoms: _91  and  _94
REMARK   42  A    between atoms: _97  and  _99
REMARK   43  A    between atoms: _99  and  _100
REMARK   44  A    between atoms: _99  and  _102
REMARK   45  A    between atoms: _102  and  _103
REMARK   46  A    between atoms: _106  and  _108
REMARK   47  A    between atoms: _108  and  _109
REMARK   48  A    between atoms: _108  and  _111
REMARK   49  A    between atoms: _111  and  _112
REMARK   50  A    between atoms: _117  and  _118
REMARK   51  A    between atoms: _120  and  _122
REMARK   52  A    between atoms: _122  and  _123
REMARK   53  A    between atoms: _122  and  _125
REMARK   54  A    between atoms: _127  and  _129
REMARK   55  A    between atoms: _129  and  _130
REMARK   56  A    between atoms: _129  and  _132
REMARK   57  A    between atoms: _132  and  _133
REMARK   58  A    between atoms: _133  and  _134
REMARK   59  A    between atoms: _134  and  _135
REMARK   60  A    between atoms: _144  and  _146
REMARK   61  A    between atoms: _146  and  _147
REMARK   62  A    between atoms: _146  and  _149
REMARK   63  A    between atoms: _149  and  _150
REMARK   64  A    between atoms: _153  and  _155
REMARK   65  A    between atoms: _155  and  _156
REMARK   66  A    between atoms: _155  and  _158
REMARK   67  A    between atoms: _158  and  _159
REMARK   68  A    between atoms: _162  and  _164
REMARK   69  A    between atoms: _164  and  _165
REMARK   70  A    between atoms: _164  and  _167
REMARK   71  A    between atoms: _167  and  _168
REMARK   72  A    between atoms: _171  and  _173
REMARK   73  A    between atoms: _173  and  _174
REMARK   74  A    between atoms: _173  and  _176
REMARK   75  A    between atoms: _179  and  _181
REMARK   76  A    between atoms: _181  and  _182
REMARK   77  A    between atoms: _181  and  _184
REMARK   78  A    between atoms: _184  and  _185
REMARK   79  A    between atoms: _188  and  _190
REMARK   80  A    between atoms: _190  and  _191
REMARK   81  A    between atoms: _190  and  _193
REMARK   82  A    between atoms: _193  and  _194
REMARK   83  A    between atoms: _199  and  _200
REMARK   84  A    between atoms: _202  and  _204
REMARK   85  A    between atoms: _204  and  _205
REMARK   86  A    between atoms: _204  and  _207
REMARK   87  A    between atoms: _209  and  _211
REMARK   88  A    between atoms: _211  and  _212
REMARK   89  A    between atoms: _211  and  _214
REMARK   90  A    between atoms: _217  and  _219
REMARK   91  A    between atoms: _219  and  _220
REMARK   92  A    between atoms: _223  and  _225
REMARK   93  A    between atoms: _225  and  _226
REMARK   94  A    between atoms: _228  and  _230
REMARK   95  A    between atoms: _230  and  _231
REMARK   96  A    between atoms: _230  and  _233
REMARK   97  A    between atoms: _233  and  _234
REMARK   98  A    between atoms: _237  and  _239
REMARK   99  A    between atoms: _239  and  _240
REMARK  100  A    between atoms: _239  and  _242
REMARK  101  A    between atoms: _245  and  _247
REMARK  102  A    between atoms: _247  and  _248
REMARK  103  A    between atoms: _250  and  _252
REMARK  104  A    between atoms: _252  and  _253
REMARK  105  A    between atoms: _252  and  _255
REMARK  106  A    between atoms: _255  and  _256
REMARK  107  A    between atoms: _256  and  _257
REMARK  108  A    between atoms: _260  and  _262
REMARK  109  A    between atoms: _262  and  _263
REMARK  110  A    between atoms: _262  and  _265
REMARK  111  A    between atoms: _268  and  _270
REMARK  112  A    between atoms: _270  and  _271
REMARK  113  A    between atoms: _270  and  _273
REMARK  114  A    between atoms: _273  and  _274
REMARK  115  A    between atoms: _277  and  _279
REMARK  116  A    between atoms: _279  and  _280
REMARK  117  A    between atoms: _279  and  _282
REMARK  118  A    between atoms: _282  and  _283
REMARK  119  A    between atoms: _286  and  _288
REMARK  120  A    between atoms: _288  and  _289
REMARK  121  A    between atoms: _288  and  _291
REMARK  122  A    between atoms: _291  and  _292
REMARK  123  A    between atoms: _295  and  _297
REMARK  124  A    between atoms: _297  and  _298
REMARK  125  A    between atoms: _297  and  _300
REMARK  126  A    between atoms: _300  and  _301
REMARK  127  A    between atoms: _304  and  _306
REMARK  128  A    between atoms: _306  and  _307
REMARK  129  A    between atoms: _306  and  _309
REMARK  130  A    between atoms: _309  and  _310
REMARK  131  A    between atoms: _312  and  _314
REMARK  132  A    between atoms: _314  and  _315
REMARK  133  A    between atoms: _314  and  _317
REMARK  134  A    between atoms: _317  and  _318
REMARK  135  A    between atoms: _321  and  _323
REMARK  136  A    between atoms: _323  and  _324
REMARK  137  A    between atoms: _323  and  _326
REMARK  138  A    between atoms: _326  and  _327
REMARK  139  A    between atoms: _332  and  _333
REMARK  140  A    between atoms: _335  and  _337
REMARK  141  A    between atoms: _337  and  _338
REMARK  142  A    between atoms: _337  and  _340
REMARK  143  A    between atoms: _343  and  _345
REMARK  144  A    between atoms: _345  and  _346
REMARK  145  A    between atoms: _349  and  _351
REMARK  146  A    between atoms: _351  and  _352
REMARK  147  A    between atoms: _351  and  _354
REMARK  148  A    between atoms: _354  and  _355
REMARK  149  A    between atoms: _355  and  _356
REMARK  150  A    between atoms: _356  and  _357
REMARK  151  A    between atoms: _366  and  _368
REMARK  152  A    between atoms: _368  and  _369
REMARK  153  A    between atoms: _368  and  _371
REMARK  154  A    between atoms: _371  and  _372
REMARK  155  A    between atoms: _372  and  _373
REMARK  156  A    between atoms: _373  and  _374
REMARK  157  A    between atoms: _383  and  _385
REMARK  158  A    between atoms: _385  and  _386
REMARK  159  A    between atoms: _385  and  _388
REMARK  160  A    between atoms: _388  and  _389
REMARK  161  A    between atoms: _392  and  _394
REMARK  162  A    between atoms: _394  and  _395
REMARK  163  A    between atoms: _397  and  _399
REMARK  164  A    between atoms: _399  and  _400
REMARK  165  A    between atoms: _399  and  _402
REMARK  166  A    between atoms: _402  and  _403
REMARK  167  A    between atoms: _403  and  _404
REMARK  168  A    between atoms: _407  and  _409
REMARK  169  A    between atoms: _409  and  _410
REMARK  170  A    between atoms: _409  and  _412
REMARK  171  A    between atoms: _412  and  _413
REMARK  172  A    between atoms: _415  and  _417
REMARK  173  A    between atoms: _417  and  _418
REMARK  174  A    between atoms: _417  and  _420
REMARK  175  A    between atoms: _420  and  _421
REMARK  176  A    between atoms: _424  and  _426
REMARK  177  A    between atoms: _426  and  _427
REMARK  178  A    between atoms: _426  and  _429
REMARK  179  A    between atoms: _429  and  _430
REMARK  180  A    between atoms: _430  and  _431
REMARK  181  A    between atoms: _436  and  _438
REMARK  182  A    between atoms: _438  and  _439
REMARK  183  A    between atoms: _438  and  _441
REMARK  184  A    between atoms: _441  and  _442
REMARK  185  A    between atoms: _445  and  _447
REMARK  186  A    between atoms: _447  and  _448
REMARK  187  A    between atoms: _447  and  _450
REMARK  188  A    between atoms: _450  and  _451
REMARK  189  A    between atoms: _454  and  _456
REMARK  190  A    between atoms: _456  and  _457
REMARK  191  A    between atoms: _456  and  _459
REMARK  192  A    between atoms: _459  and  _460
REMARK  193  A    between atoms: _460  and  _461
REMARK  194  A    between atoms: _460  and  _462
REMARK  195  A    between atoms: _461  and  MG_705
REMARK  196  A    between atoms: _465  and  _467
REMARK  197  A    between atoms: _467  and  _468
REMARK  198  A    between atoms: _467  and  _470
REMARK  199  A    between atoms: _470  and  _471
REMARK  200  A    between atoms: _474  and  _476
REMARK  201  A    between atoms: _476  and  _477
REMARK  202  A    between atoms: _476  and  _479
REMARK  203  A    between atoms: _479  and  _480
REMARK  204  A    between atoms: _480  and  _481
REMARK  205  A    between atoms: _481  and  _482
REMARK  206  A    between atoms: _491  and  _493
REMARK  207  A    between atoms: _493  and  _494
REMARK  208  A    between atoms: _493  and  _496
REMARK  209  A    between atoms: _496  and  _497
REMARK  210  A    between atoms: _497  and  _499
REMARK  211  A    between atoms: _499  and  MG_705
REMARK  212  A    between atoms: _500  and  _502
REMARK  213  A    between atoms: _502  and  _503
REMARK  214  A    between atoms: _502  and  _505
REMARK  215  A    between atoms: _505  and  _506
REMARK  216  A    between atoms: _506  and  _507
REMARK  217  A    between atoms: _510  and  _512
REMARK  218  A    between atoms: _512  and  _513
REMARK  219  A    between atoms: _512  and  _515
REMARK  220  A    between atoms: _515  and  _516
REMARK  221  A    between atoms: _519  and  _521
REMARK  222  A    between atoms: _521  and  _522
REMARK  223  A    between atoms: _521  and  _524
REMARK  224  A    between atoms: _524  and  _525
REMARK  225  A    between atoms: _530  and  _532
REMARK  226  A    between atoms: _532  and  _533
REMARK  227  A    between atoms: _532  and  _535
REMARK  228  A    between atoms: _535  and  _536
REMARK  229  A    between atoms: _536  and  _537
REMARK  230  A    between atoms: _537  and  _538
REMARK  231  A    between atoms: _547  and  _549
REMARK  232  A    between atoms: _549  and  _550
REMARK  233  A    between atoms: _549  and  _552
REMARK  234  A    between atoms: _552  and  _553
REMARK  235  A    between atoms: _558  and  _559
REMARK  236  A    between atoms: _561  and  _563
REMARK  237  A    between atoms: _563  and  _564
REMARK  238  A    between atoms: _563  and  _566
REMARK  239  A    between atoms: _569  and  _571
REMARK  240  A    between atoms: _571  and  _572
REMARK  241  A    between atoms: _571  and  _574
REMARK  242  A    between atoms: _574  and  _575
REMARK  243  A    between atoms: _575  and  _576
REMARK  244  A    between atoms: _578  and  _580
REMARK  245  A    between atoms: _580  and  _581
REMARK  246  A    between atoms: _580  and  _583
REMARK  247  A    between atoms: _583  and  _584
REMARK  248  A    between atoms: _587  and  _589
REMARK  249  A    between atoms: _589  and  _590
REMARK  250  A    between atoms: _589  and  _592
REMARK  251  A    between atoms: _595  and  _597
REMARK  252  A    between atoms: _597  and  _598
REMARK  253  A    between atoms: _597  and  _600
REMARK  254  A    between atoms: _600  and  _601
REMARK  255  A    between atoms: _607  and  _609
REMARK  256  A    between atoms: _609  and  _610
REMARK  257  A    between atoms: _613  and  _615
REMARK  258  A    between atoms: _615  and  _616
REMARK  259  A    between atoms: _615  and  _618
REMARK  260  A    between atoms: _618  and  _619
REMARK  261  A    between atoms: _619  and  _620
REMARK  262  A    between atoms: _625  and  _627
REMARK  263  A    between atoms: _627  and  _628
REMARK  264  A    between atoms: _627  and  _630
REMARK  265  A    between atoms: _630  and  _631
REMARK  266  A    between atoms: _634  and  _636
REMARK  267  A    between atoms: _636  and  _637
REMARK  268  A    between atoms: _636  and  _639
REMARK  269  A    between atoms: _639  and  _640
REMARK  270  A    between atoms: _643  and  _645
REMARK  271  A    between atoms: _645  and  _646
REMARK  272  A    between atoms: _645  and  _648
REMARK  273  A    between atoms: _648  and  _649
REMARK  274  A    between atoms: _649  and  _650
REMARK  275  A    between atoms: _653  and  _655
REMARK  276  A    between atoms: _655  and  _656
REMARK  277  A    between atoms: _659  and  _661
REMARK  278  A    between atoms: _661  and  _662
REMARK  279  A    between atoms: _665  and  _667
REMARK  280  A    between atoms: _667  and  _668
REMARK  281  A    between atoms: _667  and  _670
REMARK  282  A    between atoms: _670  and  _671
REMARK  283  A    between atoms: _676  and  _677
REMARK  284  A    between atoms: _679  and  _681
REMARK  285  A    between atoms: _681  and  _682
REMARK  286  A    between atoms: _681  and  _684
REMARK  287  A    between atoms: _684  and  _685
REMARK  288  A    between atoms: _688  and  _690
REMARK  289  A    between atoms: _690  and  _691
REMARK  290  A    between atoms: _690  and  _693
REMARK  291  A    between atoms: _693  and  _694
REMARK  292  A    between atoms: _694  and  _695
REMARK  293  A    between atoms: _695  and  _696
REMARK                            x       y       z     vdW  Elec       q    Type
REMARK                         _______ _______ _______ _____ _____    ______ ____
ROOT
ATOM      1  O   HOH     1      30.322  48.876  37.389  0.00  0.00    +0.000 OA
ENDROOT
TORSDOF 0
REMARK  Name = ../refined-set-2016/2zcr/2zcr_pocket.pdb
REMARK  293 active torsions:
REMARK  status: ('A' for Active; 'I' for Inactive)
REMARK    1  A    between atoms: _1  and  _3
REMARK    2  A    between atoms: _3  and  _4
REMARK    3  A    between atoms: _3  and  _6
REMARK    4  A    between atoms: _6  and  _7
REMARK    5  A    between atoms: _7  and  _8
REMARK    6  A    between atoms: _10  and  _12
REMARK    7  A    between atoms: _12  and  _13
REMARK    8  A    between atoms: _12  and  _15
REMARK    9  A    between atoms: _15  and  _16
REMARK   10  A    between atoms: _21  and  _23
REMARK   11  A    between atoms: _23  and  _24
REMARK   12  A    between atoms: _23  and  _26
REMARK   13  A    between atoms: _26  and  _27
REMARK   14  A    between atoms: _29  and  _31
REMARK   15  A    between atoms: _31  and  _32
REMARK   16  A    between atoms: _31  and  _34
REMARK   17  A    between atoms: _34  and  _35
REMARK   18  A    between atoms: _35  and  _36
REMARK   19  A    between atoms: _36  and  _37
REMARK   20  A    between atoms: _37  and  _38
REMARK   21  A    between atoms: _42  and  _44
REMARK   22  A    between atoms: _44  and  _45
REMARK   23  A    between atoms: _44  and  _47
REMARK   24  A    between atoms: _47  and  _48
REMARK   25  A    between atoms: _50  and  _52
REMARK   26  A    between atoms: _52  and  _53
REMARK   27  A    between atoms: _52  and  _55
REMARK   28  A    between atoms: _55  and  _56
REMARK   29  A    between atoms: _62  and  _64
REMARK   30  A    between atoms: _64  and  _65
REMARK   31  A    between atoms: _68  and  _70
REMARK   32  A    between atoms: _70  and  _71
REMARK   33  A    between atoms: _70  and  _73
REMARK   34  A    between atoms: _73  and  _74
REMARK   35  A    between atoms: _80  and  _82
REMARK   36  A    between atoms: _82  and  _83
REMARK   37  A    between atoms: _82  and  _85
REMARK   38  A    between atoms: _85  and  _86
REMARK   39  A    between atoms: _89  and  _91
REMARK   40  A    between atoms: _91  and  _92
REMARK   41  A    between atoms: _91  and  _94
REMARK   42  A    between atoms: _97  and  _99
REMARK   43  A    between atoms: _99  and  _100
REMARK   44  A    between atoms: _99  and  _102
REMARK   45  A    between atoms: _102  and  _103
REMARK   46  A    between atoms: _106  and  _108
REMARK   47  A    between atoms: _108  and  _109
REMARK   48  A    between atoms: _108  and  _111
REMARK   49  A    between atoms: _111  and  _112
REMARK   50  A    between atoms: _117  and  _118
REMARK   51  A    between atoms: _120  and  _122
REMARK   52  A    between atoms: _122  and  _123
REMARK   53  A    between atoms: _122  and  _125
REMARK   54  A    between atoms: _127  and  _129
REMARK   55  A    between atoms: _129  and  _130
REMARK   56  A    between atoms: _129  and  _132
REMARK   57  A    between atoms: _132  and  _133
REMARK   58  A    between atoms: _133  and  _134
REMARK   59  A    between atoms: _134  and  _135
REMARK   60  A    between atoms: _144  and  _146
REMARK   61  A    between atoms: _146  and  _147
REMARK   62  A    between atoms: _146  and  _149
REMARK   63  A    between atoms: _149  and  _150
REMARK   64  A    between atoms: _153  and  _155
REMARK   65  A    between atoms: _155  and  _156
REMARK   66  A    between atoms: _155  and  _158
REMARK   67  A    between atoms: _158  and  _159
REMARK   68  A    between atoms: _162  and  _164
REMARK   69  A    between atoms: _164  and  _165
REMARK   70  A    between atoms: _164  and  _167
REMARK   71  A    between atoms: _167  and  _168
REMARK   72  A    between atoms: _171  and  _173
REMARK   73  A    between atoms: _173  and  _174
REMARK   74  A    between atoms: _173  and  _176
REMARK   75  A    between atoms: _179  and  _181
REMARK   76  A    between atoms: _181  and  _182
REMARK   77  A    between atoms: _181  and  _184
REMARK   78  A    between atoms: _184  and  _185
REMARK   79  A    between atoms: _188  and  _190
REMARK   80  A    between atoms: _190  and  _191
REMARK   81  A    between atoms: _190  and  _193
REMARK   82  A    between atoms: _193  and  _194
REMARK   83  A    between atoms: _199  and  _200
REMARK   84  A    between atoms: _202  and  _204
REMARK   85  A    between atoms: _204  and  _205
REMARK   86  A    between atoms: _204  and  _207
REMARK   87  A    between atoms: _209  and  _211
REMARK   88  A    between atoms: _211  and  _212
REMARK   89  A    between atoms: _211  and  _214
REMARK   90  A    between atoms: _217  and  _219
REMARK   91  A    between atoms: _219  and  _220
REMARK   92  A    between atoms: _223  and  _225
REMARK   93  A    between atoms: _225  and  _226
REMARK   94  A    between atoms: _228  and  _230
REMARK   95  A    between atoms: _230  and  _231
REMARK   96  A    between atoms: _230  and  _233
REMARK   97  A    between atoms: _233  and  _234
REMARK   98  A    between atoms: _237  and  _239
REMARK   99  A    between atoms: _239  and  _240
REMARK  100  A    between atoms: _239  and  _242
REMARK  101  A    between atoms: _245  and  _247
REMARK  102  A    between atoms: _247  and  _248
REMARK  103  A    between atoms: _250  and  _252
REMARK  104  A    between atoms: _252  and  _253
REMARK  105  A    between atoms: _252  and  _255
REMARK  106  A    between atoms: _255  and  _256
REMARK  107  A    between atoms: _256  and  _257
REMARK  108  A    between atoms: _260  and  _262
REMARK  109  A    between atoms: _262  and  _263
REMARK  110  A    between atoms: _262  and  _265
REMARK  111  A    between atoms: _268  and  _270
REMARK  112  A    between atoms: _270  and  _271
REMARK  113  A    between atoms: _270  and  _273
REMARK  114  A    between atoms: _273  and  _274
REMARK  115  A    between atoms: _277  and  _279
REMARK  116  A    between atoms: _279  and  _280
REMARK  117  A    between atoms: _279  and  _282
REMARK  118  A    between atoms: _282  and  _283
REMARK  119  A    between atoms: _286  and  _288
REMARK  120  A    between atoms: _288  and  _289
REMARK  121  A    between atoms: _288  and  _291
REMARK  122  A    between atoms: _291  and  _292
REMARK  123  A    between atoms: _295  and  _297
REMARK  124  A    between atoms: _297  and  _298
REMARK  125  A    between atoms: _297  and  _300
REMARK  126  A    between atoms: _300  and  _301
REMARK  127  A    between atoms: _304  and  _306
REMARK  128  A    between atoms: _306  and  _307
REMARK  129  A    between atoms: _306  and  _309
REMARK  130  A    between atoms: _309  and  _310
REMARK  131  A    between atoms: _312  and  _314
REMARK  132  A    between atoms: _314  and  _315
REMARK  133  A    between atoms: _314  and  _317
REMARK  134  A    between atoms: _317  and  _318
REMARK  135  A    between atoms: _321  and  _323
REMARK  136  A    between atoms: _323  and  _324
REMARK  137  A    between atoms: _323  and  _326
REMARK  138  A    between atoms: _326  and  _327
REMARK  139  A    between atoms: _332  and  _333
REMARK  140  A    between atoms: _335  and  _337
REMARK  141  A    between atoms: _337  and  _338
REMARK  142  A    between atoms: _337  and  _340
REMARK  143  A    between atoms: _343  and  _345
REMARK  144  A    between atoms: _345  and  _346
REMARK  145  A    between atoms: _349  and  _351
REMARK  146  A    between atoms: _351  and  _352
REMARK  147  A    between atoms: _351  and  _354
REMARK  148  A    between atoms: _354  and  _355
REMARK  149  A    between atoms: _355  and  _356
REMARK  150  A    between atoms: _356  and  _357
REMARK  151  A    between atoms: _366  and  _368
REMARK  152  A    between atoms: _368  and  _369
REMARK  153  A    between atoms: _368  and  _371
REMARK  154  A    between atoms: _371  and  _372
REMARK  155  A    between atoms: _372  and  _373
REMARK  156  A    between atoms: _373  and  _374
REMARK  157  A    between atoms: _383  and  _385
REMARK  158  A    between atoms: _385  and  _386
REMARK  159  A    between atoms: _385  and  _388
REMARK  160  A    between atoms: _388  and  _389
REMARK  161  A    between atoms: _392  and  _394
REMARK  162  A    between atoms: _394  and  _395
REMARK  163  A    between atoms: _397  and  _399
REMARK  164  A    between atoms: _399  and  _400
REMARK  165  A    between atoms: _399  and  _402
REMARK  166  A    between atoms: _402  and  _403
REMARK  167  A    between atoms: _403  and  _404
REMARK  168  A    between atoms: _407  and  _409
REMARK  169  A    between atoms: _409  and  _410
REMARK  170  A    between atoms: _409  and  _412
REMARK  171  A    between atoms: _412  and  _413
REMARK  172  A    between atoms: _415  and  _417
REMARK  173  A    between atoms: _417  and  _418
REMARK  174  A    between atoms: _417  and  _420
REMARK  175  A    between atoms: _420  and  _421
REMARK  176  A    between atoms: _424  and  _426
REMARK  177  A    between atoms: _426  and  _427
REMARK  178  A    between atoms: _426  and  _429
REMARK  179  A    between atoms: _429  and  _430
REMARK  180  A    between atoms: _430  and  _431
REMARK  181  A    between atoms: _436  and  _438
REMARK  182  A    between atoms: _438  and  _439
REMARK  183  A    between atoms: _438  and  _441
REMARK  184  A    between atoms: _441  and  _442
REMARK  185  A    between atoms: _445  and  _447
REMARK  186  A    between atoms: _447  and  _448
REMARK  187  A    between atoms: _447  and  _450
REMARK  188  A    between atoms: _450  and  _451
REMARK  189  A    between atoms: _454  and  _456
REMARK  190  A    between atoms: _456  and  _457
REMARK  191  A    between atoms: _456  and  _459
REMARK  192  A    between atoms: _459  and  _460
REMARK  193  A    between atoms: _460  and  _461
REMARK  194  A    between atoms: _460  and  _462
REMARK  195  A    between atoms: _461  and  MG_705
REMARK  196  A    between atoms: _465  and  _467
REMARK  197  A    between atoms: _467  and  _468
REMARK  198  A    between atoms: _467  and  _470
REMARK  199  A    between atoms: _470  and  _471
REMARK  200  A    between atoms: _474  and  _476
REMARK  201  A    between atoms: _476  and  _477
REMARK  202  A    between atoms: _476  and  _479
REMARK  203  A    between atoms: _479  and  _480
REMARK  204  A    between atoms: _480  and  _481
REMARK  205  A    between atoms: _481  and  _482
REMARK  206  A    between atoms: _491  and  _493
REMARK  207  A    between atoms: _493  and  _494
REMARK  208  A    between atoms: _493  and  _496
REMARK  209  A    between atoms: _496  and  _497
REMARK  210  A    between atoms: _497  and  _499
REMARK  211  A    between atoms: _499  and  MG_705
REMARK  212  A    between atoms: _500  and  _502
REMARK  213  A    between atoms: _502  and  _503
REMARK  214  A    between atoms: _502  and  _505
REMARK  215  A    between atoms: _505  and  _506
REMARK  216  A    between atoms: _506  and  _507
REMARK  217  A    between atoms: _510  and  _512
REMARK  218  A    between atoms: _512  and  _513
REMARK  219  A    between atoms: _512  and  _515
REMARK  220  A    between atoms: _515  and  _516
REMARK  221  A    between atoms: _519  and  _521
REMARK  222  A    between atoms: _521  and  _522
REMARK  223  A    between atoms: _521  and  _524
REMARK  224  A    between atoms: _524  and  _525
REMARK  225  A    between atoms: _530  and  _532
REMARK  226  A    between atoms: _532  and  _533
REMARK  227  A    between atoms: _532  and  _535
REMARK  228  A    between atoms: _535  and  _536
REMARK  229  A    between atoms: _536  and  _537
REMARK  230  A    between atoms: _537  and  _538
REMARK  231  A    between atoms: _547  and  _549
REMARK  232  A    between atoms: _549  and  _550
REMARK  233  A    between atoms: _549  and  _552
REMARK  234  A    between atoms: _552  and  _553
REMARK  235  A    between atoms: _558  and  _559
REMARK  236  A    between atoms: _561  and  _563
REMARK  237  A    between atoms: _563  and  _564
REMARK  238  A    between atoms: _563  and  _566
REMARK  239  A    between atoms: _569  and  _571
REMARK  240  A    between atoms: _571  and  _572
REMARK  241  A    between atoms: _571  and  _574
REMARK  242  A    between atoms: _574  and  _575
REMARK  243  A    between atoms: _575  and  _576
REMARK  244  A    between atoms: _578  and  _580
REMARK  245  A    between atoms: _580  and  _581
REMARK  246  A    between atoms: _580  and  _583
REMARK  247  A    between atoms: _583  and  _584
REMARK  248  A    between atoms: _587  and  _589
REMARK  249  A    between atoms: _589  and  _590
REMARK  250  A    between atoms: _589  and  _592
REMARK  251  A    between atoms: _595  and  _597
REMARK  252  A    between atoms: _597  and  _598
REMARK  253  A    between atoms: _597  and  _600
REMARK  254  A    between atoms: _600  and  _601
REMARK  255  A    between atoms: _607  and  _609
REMARK  256  A    between atoms: _609  and  _610
REMARK  257  A    between atoms: _613  and  _615
REMARK  258  A    between atoms: _615  and  _616
REMARK  259  A    between atoms: _615  and  _618
REMARK  260  A    between atoms: _618  and  _619
REMARK  261  A    between atoms: _619  and  _620
REMARK  262  A    between atoms: _625  and  _627
REMARK  263  A    between atoms: _627  and  _628
REMARK  264  A    between atoms: _627  and  _630
REMARK  265  A    between atoms: _630  and  _631
REMARK  266  A    between atoms: _634  and  _636
REMARK  267  A    between atoms: _636  and  _637
REMARK  268  A    between atoms: _636  and  _639
REMARK  269  A    between atoms: _639  and  _640
REMARK  270  A    between atoms: _643  and  _645
REMARK  271  A    between atoms: _645  and  _646
REMARK  272  A    between atoms: _645  and  _648
REMARK  273  A    between atoms: _648  and  _649
REMARK  274  A    between atoms: _649  and  _650
REMARK  275  A    between atoms: _653  and  _655
REMARK  276  A    between atoms: _655  and  _656
REMARK  277  A    between atoms: _659  and  _661
REMARK  278  A    between atoms: _661  and  _662
REMARK  279  A    between atoms: _665  and  _667
REMARK  280  A    between atoms: _667  and  _668
REMARK  281  A    between atoms: _667  and  _670
REMARK  282  A    between atoms: _670  and  _671
REMARK  283  A    between atoms: _676  and  _677
REMARK  284  A    between atoms: _679  and  _681
REMARK  285  A    between atoms: _681  and  _682
REMARK  286  A    between atoms: _681  and  _684
REMARK  287  A    between atoms: _684  and  _685
REMARK  288  A    between atoms: _688  and  _690
REMARK  289  A    between atoms: _690  and  _691
REMARK  290  A    between atoms: _690  and  _693
REMARK  291  A    between atoms: _693  and  _694
REMARK  292  A    between atoms: _694  and  _695
REMARK  293  A    between atoms: _695  and  _696
REMARK                            x       y       z     vdW  Elec       q    Type
REMARK                         _______ _______ _______ _____ _____    ______ ____
ROOT
ATOM      1  O   HOH     1      15.391  51.176  40.964  0.00  0.00    +0.000 OA
ENDROOT
TORSDOF 0
