REMARK  Name = ../refined-set-2016/1h6h/1h6h_pocket.pdb
REMARK  105 active torsions:
REMARK  status: ('A' for Active; 'I' for Inactive)
REMARK    1  A    between atoms: _1  and  _3
REMARK    2  A    between atoms: _3  and  _4
REMARK    3  A    between atoms: _3  and  _6
REMARK    4  A    between atoms: _6  and  _7
REMARK    5  A    between atoms: _10  and  _12
REMARK    6  A    between atoms: _12  and  _13
REMARK    7  A    between atoms: _12  and  _15
REMARK    8  A    between atoms: _15  and  _16
REMARK    9  A    between atoms: _18  and  _20
REMARK   10  A    between atoms: _20  and  _21
REMARK   11  A    between atoms: _20  and  _23
REMARK   12  A    between atoms: _23  and  _24
REMARK   13  A    between atoms: _29  and  _31
REMARK   14  A    between atoms: _31  and  _32
REMARK   15  A    between atoms: _31  and  _34
REMARK   16  A    between atoms: _34  and  _35
REMARK   17  A    between atoms: _41  and  _43
REMARK   18  A    between atoms: _43  and  _44
REMARK   19  A    between atoms: _43  and  _46
REMARK   20  A    between atoms: _49  and  _51
REMARK   21  A    between atoms: _51  and  _52
REMARK   22  A    between atoms: _51  and  _54
REMARK   23  A    between atoms: _54  and  _55
REMARK   24  A    between atoms: _61  and  _63
REMARK   25  A    between atoms: _63  and  _64
REMARK   26  A    between atoms: _63  and  _66
REMARK   27  A    between atoms: _66  and  _67
REMARK   28  A    between atoms: _67  and  _68
REMARK   29  A    between atoms: _68  and  _69
REMARK   30  A    between atoms: _78  and  _80
REMARK   31  A    between atoms: _80  and  _81
REMARK   32  A    between atoms: _80  and  _83
REMARK   33  A    between atoms: _83  and  _84
REMARK   34  A    between atoms: _84  and  _85
REMARK   35  A    between atoms: _85  and  _86
REMARK   36  A    between atoms: _95  and  _97
REMARK   37  A    between atoms: _97  and  _98
REMARK   38  A    between atoms: _97  and  _100
REMARK   39  A    between atoms: _100  and  _101
REMARK   40  A    between atoms: _106  and  _107
REMARK   41  A    between atoms: _109  and  _111
REMARK   42  A    between atoms: _111  and  _112
REMARK   43  A    between atoms: _111  and  _114
REMARK   44  A    between atoms: _114  and  _115
REMARK   45  A    between atoms: _115  and  _116
REMARK   46  A    between atoms: _116  and  _117
REMARK   47  A    between atoms: _126  and  _128
REMARK   48  A    between atoms: _128  and  _129
REMARK   49  A    between atoms: _128  and  _131
REMARK   50  A    between atoms: _131  and  _132
REMARK   51  A    between atoms: _132  and  _133
REMARK   52  A    between atoms: _138  and  _140
REMARK   53  A    between atoms: _140  and  _141
REMARK   54  A    between atoms: _140  and  _143
REMARK   55  A    between atoms: _143  and  _144
REMARK   56  A    between atoms: _150  and  _152
REMARK   57  A    between atoms: _152  and  _153
REMARK   58  A    between atoms: _152  and  _155
REMARK   59  A    between atoms: _155  and  _156
REMARK   60  A    between atoms: _161  and  _163
REMARK   61  A    between atoms: _163  and  _164
REMARK   62  A    between atoms: _167  and  _169
REMARK   63  A    between atoms: _169  and  _170
REMARK   64  A    between atoms: _169  and  _172
REMARK   65  A    between atoms: _172  and  _173
REMARK   66  A    between atoms: _177  and  _178
REMARK   67  A    between atoms: _183  and  _185
REMARK   68  A    between atoms: _185  and  _186
REMARK   69  A    between atoms: _189  and  _191
REMARK   70  A    between atoms: _191  and  _192
REMARK   71  A    between atoms: _191  and  _194
REMARK   72  A    between atoms: _194  and  _195
REMARK   73  A    between atoms: _195  and  _196
REMARK   74  A    between atoms: _196  and  _197
REMARK   75  A    between atoms: _197  and  _198
REMARK   76  A    between atoms: _202  and  _204
REMARK   77  A    between atoms: _204  and  _205
REMARK   78  A    between atoms: _204  and  _207
REMARK   79  A    between atoms: _210  and  _212
REMARK   80  A    between atoms: _212  and  _213
REMARK   81  A    between atoms: _212  and  _215
REMARK   82  A    between atoms: _215  and  _216
REMARK   83  A    between atoms: _221  and  _222
REMARK   84  A    between atoms: _224  and  _226
REMARK   85  A    between atoms: _226  and  _227
REMARK   86  A    between atoms: _226  and  _229
REMARK   87  A    between atoms: _232  and  _234
REMARK   88  A    between atoms: _234  and  _235
REMARK   89  A    between atoms: _234  and  _237
REMARK   90  A    between atoms: _237  and  _238
REMARK   91  A    between atoms: _238  and  _239
REMARK   92  A    between atoms: _239  and  _240
REMARK   93  A    between atoms: _240  and  _241
REMARK   94  A    between atoms: _245  and  _247
REMARK   95  A    between atoms: _247  and  _248
REMARK   96  A    between atoms: _247  and  _250
REMARK   97  A    between atoms: _250  and  _251
REMARK   98  A    between atoms: _254  and  _256
REMARK   99  A    between atoms: _256  and  _257
REMARK  100  A    between atoms: _260  and  _262
REMARK  101  A    between atoms: _262  and  _263
REMARK  102  A    between atoms: _262  and  _265
REMARK  103  A    between atoms: _265  and  _266
REMARK  104  A    between atoms: _266  and  _267
REMARK  105  A    between atoms: _267  and  _268
REMARK                            x       y       z     vdW  Elec       q    Type
REMARK                         _______ _______ _______ _____ _____    ______ ____
ROOT
ATOM      1  C   HIS A   3      16.202  12.314  10.720  0.00  0.00    +0.241 C 
ATOM      2  O   HIS A   3      16.995  11.561  11.290  0.00  0.00    -0.273 OA
ATOM      3  N   PHE A   4      15.268  11.878   9.878  0.00  0.00    -0.297 N 
ATOM      4  H   PHE A   4      14.629  12.560   9.422  0.00  0.00    +0.150 HD
ENDROOT
BRANCH   3   5
ATOM      5  CA  PHE A   4      15.130  10.460   9.588  0.00  0.00    +0.153 C 
BRANCH   5   6
ATOM      6  C   PHE A   4      15.429  10.121   8.139  0.00  0.00    +0.241 C 
ATOM      7  N   VAL A   5      15.997   8.934   7.935  0.00  0.00    -0.297 N 
ATOM      8  H   VAL A   5      16.185   8.326   8.758  0.00  0.00    +0.150 HD
ATOM      9  O   PHE A   4      15.134  10.912   7.236  0.00  0.00    -0.273 OA
BRANCH   7  10
ATOM     10  CA  VAL A   5      16.368   8.446   6.611  0.00  0.00    +0.149 C 
BRANCH  10  11
ATOM     11  C   VAL A   5      15.581   7.163   6.308  0.00  0.00    +0.241 C 
ATOM     12  O   VAL A   5      15.468   6.285   7.171  0.00  0.00    -0.273 OA
ATOM     13  N   PHE A   6      15.027   7.073   5.096  0.00  0.00    -0.298 N 
ATOM     14  H   PHE A   6      15.141   7.861   4.427  0.00  0.00    +0.150 HD
BRANCH  13  15
ATOM     15  CA  PHE A   6      14.261   5.891   4.683  0.00  0.00    +0.141 C 
BRANCH  15  16
ATOM     16  C   PHE A   6      15.202   4.906   3.981  0.00  0.00    +0.227 C 
ATOM     17  O   PHE A   6      15.983   5.302   3.109  0.00  0.00    -0.286 OA
ENDBRANCH  15  16
BRANCH  15  18
ATOM     18  CB  PHE A   6      13.108   6.305   3.738  0.00  0.00    +0.054 C 
BRANCH  18  19
ATOM     19  CG  PHE A   6      12.095   7.239   4.377  0.00  0.00    -0.020 A 
ATOM     20  CD2 PHE A   6      11.012   6.719   5.084  0.00  0.00    -0.004 A 
ATOM     21  CE2 PHE A   6      10.096   7.560   5.750  0.00  0.00    -0.000 A 
ATOM     22  CZ  PHE A   6      10.279   8.954   5.696  0.00  0.00    -0.000 A 
ATOM     23  CE1 PHE A   6      11.364   9.492   4.981  0.00  0.00    -0.000 A 
ATOM     24  CD1 PHE A   6      12.264   8.630   4.323  0.00  0.00    -0.004 A 
ENDBRANCH  18  19
ENDBRANCH  15  18
ENDBRANCH  13  15
ENDBRANCH  10  11
BRANCH  10  25
ATOM     25  CB  VAL A   5      17.887   8.145   6.551  0.00  0.00    +0.027 C 
ATOM     26  CG2 VAL A   5      18.663   9.432   6.632  0.00  0.00    +0.002 C 
ATOM     27  CG1 VAL A   5      18.260   7.420   5.264  0.00  0.00    +0.002 C 
ENDBRANCH  10  25
ENDBRANCH   7  10
ENDBRANCH   5   6
BRANCH   5  28
ATOM     28  CB  PHE A   4      13.713   9.983   9.941  0.00  0.00    +0.055 C 
BRANCH  28  29
ATOM     29  CG  PHE A   4      13.502   9.793  11.414  0.00  0.00    -0.020 A 
ATOM     30  CD2 PHE A   4      13.326  10.896  12.253  0.00  0.00    -0.004 A 
ATOM     31  CE2 PHE A   4      13.218  10.730  13.642  0.00  0.00    -0.000 A 
ATOM     32  CZ  PHE A   4      13.288   9.448  14.195  0.00  0.00    -0.000 A 
ATOM     33  CE1 PHE A   4      13.458   8.337  13.364  0.00  0.00    -0.000 A 
ATOM     34  CD1 PHE A   4      13.562   8.521  11.973  0.00  0.00    -0.004 A 
ENDBRANCH  28  29
ENDBRANCH   5  28
ENDBRANCH   3   5
BRANCH   1  35
ATOM     35  CA  HIS A   3      16.260  13.810  10.966  0.00  0.00    +0.155 C 
BRANCH  35  38
ATOM     36  C   SER A   2      16.954  14.961  13.007  0.00  0.00    +0.243 C 
ATOM     37  O   SER A   2      16.083  15.823  12.885  0.00  0.00    -0.273 OA
ATOM     38  N   HIS A   3      17.153  13.993  12.116  0.00  0.00    -0.297 N 
ATOM     39  H   HIS A   3      17.961  13.350  12.238  0.00  0.00    +0.150 HD
BRANCH  36  40
ATOM     40  CA  SER A   2      17.920  14.996  14.187  0.00  0.00    +0.178 C 
BRANCH  40  42
ATOM     41  C   THR A   1      18.993  17.115  14.554  0.00  0.00    +0.241 C 
ATOM     42  N   SER A   2      17.949  16.327  14.776  0.00  0.00    -0.295 N 
ATOM     43  H   SER A   2      17.158  16.657  15.366  0.00  0.00    +0.150 HD
ATOM     44  O   THR A   1      19.963  16.757  13.884  0.00  0.00    -0.274 OA
BRANCH  41  45
ATOM     45  CA  THR A   1      18.973  18.507  15.183  0.00  0.00    +0.172 C 
BRANCH  45  46
ATOM     46  N   THR A   1      20.276  18.636  15.818  0.00  0.00    -0.236 NA
ATOM     47  H   THR A   1      21.120  18.379  15.267  0.00  0.00    +0.142 HD
ENDBRANCH  45  46
BRANCH  45  48
ATOM     48  CB  THR A   1      18.797  19.526  14.049  0.00  0.00    +0.135 C 
ATOM     49  CG2 THR A   1      17.327  19.627  13.650  0.00  0.00    +0.034 C 
BRANCH  48  50
ATOM     50  OG1 THR A   1      19.266  20.811  14.479  0.00  0.00    -0.383 OA
ATOM     51  HG1 THR A   1      19.151  21.466  13.745  0.00  0.00    +0.210 HD
ENDBRANCH  48  50
ENDBRANCH  45  48
ENDBRANCH  41  45
ENDBRANCH  40  42
BRANCH  40  52
ATOM     52  CB  SER A   2      17.513  13.951  15.238  0.00  0.00    +0.166 C 
BRANCH  52  53
ATOM     53  OG  SER A   2      16.190  14.154  15.692  0.00  0.00    -0.380 OA
ATOM     54  H   SER A   2      16.117  15.053  16.101  0.00  0.00    +0.211 HD
ENDBRANCH  52  53
ENDBRANCH  40  52
ENDBRANCH  36  40
ENDBRANCH  35  38
BRANCH  35  55
ATOM     55  CB  HIS A   3      16.774  14.530   9.706  0.00  0.00    +0.076 C 
BRANCH  55  56
ATOM     56  CG  HIS A   3      18.042  13.963   9.143  0.00  0.00    +0.082 A 
ATOM     57  ND1 HIS A   3      19.293  14.344   9.586  0.00  0.00    -0.227 NA
ATOM     58  CE1 HIS A   3      20.219  13.724   8.872  0.00  0.00    +0.199 A 
ATOM     59  NE2 HIS A   3      19.614  12.949   7.986  0.00  0.00    -0.221 NA
ATOM     60  CD2 HIS A   3      18.253  13.079   8.137  0.00  0.00    +0.115 A 
ENDBRANCH  55  56
ENDBRANCH  35  55
ENDBRANCH   1  35
TORSDOF 23
REMARK  Name = ../refined-set-2016/1h6h/1h6h_pocket.pdb
REMARK  105 active torsions:
REMARK  status: ('A' for Active; 'I' for Inactive)
REMARK    1  A    between atoms: _1  and  _3
REMARK    2  A    between atoms: _3  and  _4
REMARK    3  A    between atoms: _3  and  _6
REMARK    4  A    between atoms: _6  and  _7
REMARK    5  A    between atoms: _10  and  _12
REMARK    6  A    between atoms: _12  and  _13
REMARK    7  A    between atoms: _12  and  _15
REMARK    8  A    between atoms: _15  and  _16
REMARK    9  A    between atoms: _18  and  _20
REMARK   10  A    between atoms: _20  and  _21
REMARK   11  A    between atoms: _20  and  _23
REMARK   12  A    between atoms: _23  and  _24
REMARK   13  A    between atoms: _29  and  _31
REMARK   14  A    between atoms: _31  and  _32
REMARK   15  A    between atoms: _31  and  _34
REMARK   16  A    between atoms: _34  and  _35
REMARK   17  A    between atoms: _41  and  _43
REMARK   18  A    between atoms: _43  and  _44
REMARK   19  A    between atoms: _43  and  _46
REMARK   20  A    between atoms: _49  and  _51
REMARK   21  A    between atoms: _51  and  _52
REMARK   22  A    between atoms: _51  and  _54
REMARK   23  A    between atoms: _54  and  _55
REMARK   24  A    between atoms: _61  and  _63
REMARK   25  A    between atoms: _63  and  _64
REMARK   26  A    between atoms: _63  and  _66
REMARK   27  A    between atoms: _66  and  _67
REMARK   28  A    between atoms: _67  and  _68
REMARK   29  A    between atoms: _68  and  _69
REMARK   30  A    between atoms: _78  and  _80
REMARK   31  A    between atoms: _80  and  _81
REMARK   32  A    between atoms: _80  and  _83
REMARK   33  A    between atoms: _83  and  _84
REMARK   34  A    between atoms: _84  and  _85
REMARK   35  A    between atoms: _85  and  _86
REMARK   36  A    between atoms: _95  and  _97
REMARK   37  A    between atoms: _97  and  _98
REMARK   38  A    between atoms: _97  and  _100
REMARK   39  A    between atoms: _100  and  _101
REMARK   40  A    between atoms: _106  and  _107
REMARK   41  A    between atoms: _109  and  _111
REMARK   42  A    between atoms: _111  and  _112
REMARK   43  A    between atoms: _111  and  _114
REMARK   44  A    between atoms: _114  and  _115
REMARK   45  A    between atoms: _115  and  _116
REMARK   46  A    between atoms: _116  and  _117
REMARK   47  A    between atoms: _126  and  _128
REMARK   48  A    between atoms: _128  and  _129
REMARK   49  A    between atoms: _128  and  _131
REMARK   50  A    between atoms: _131  and  _132
REMARK   51  A    between atoms: _132  and  _133
REMARK   52  A    between atoms: _138  and  _140
REMARK   53  A    between atoms: _140  and  _141
REMARK   54  A    between atoms: _140  and  _143
REMARK   55  A    between atoms: _143  and  _144
REMARK   56  A    between atoms: _150  and  _152
REMARK   57  A    between atoms: _152  and  _153
REMARK   58  A    between atoms: _152  and  _155
REMARK   59  A    between atoms: _155  and  _156
REMARK   60  A    between atoms: _161  and  _163
REMARK   61  A    between atoms: _163  and  _164
REMARK   62  A    between atoms: _167  and  _169
REMARK   63  A    between atoms: _169  and  _170
REMARK   64  A    between atoms: _169  and  _172
REMARK   65  A    between atoms: _172  and  _173
REMARK   66  A    between atoms: _177  and  _178
REMARK   67  A    between atoms: _183  and  _185
REMARK   68  A    between atoms: _185  and  _186
REMARK   69  A    between atoms: _189  and  _191
REMARK   70  A    between atoms: _191  and  _192
REMARK   71  A    between atoms: _191  and  _194
REMARK   72  A    between atoms: _194  and  _195
REMARK   73  A    between atoms: _195  and  _196
REMARK   74  A    between atoms: _196  and  _197
REMARK   75  A    between atoms: _197  and  _198
REMARK   76  A    between atoms: _202  and  _204
REMARK   77  A    between atoms: _204  and  _205
REMARK   78  A    between atoms: _204  and  _207
REMARK   79  A    between atoms: _210  and  _212
REMARK   80  A    between atoms: _212  and  _213
REMARK   81  A    between atoms: _212  and  _215
REMARK   82  A    between atoms: _215  and  _216
REMARK   83  A    between atoms: _221  and  _222
REMARK   84  A    between atoms: _224  and  _226
REMARK   85  A    between atoms: _226  and  _227
REMARK   86  A    between atoms: _226  and  _229
REMARK   87  A    between atoms: _232  and  _234
REMARK   88  A    between atoms: _234  and  _235
REMARK   89  A    between atoms: _234  and  _237
REMARK   90  A    between atoms: _237  and  _238
REMARK   91  A    between atoms: _238  and  _239
REMARK   92  A    between atoms: _239  and  _240
REMARK   93  A    between atoms: _240  and  _241
REMARK   94  A    between atoms: _245  and  _247
REMARK   95  A    between atoms: _247  and  _248
REMARK   96  A    between atoms: _247  and  _250
REMARK   97  A    between atoms: _250  and  _251
REMARK   98  A    between atoms: _254  and  _256
REMARK   99  A    between atoms: _256  and  _257
REMARK  100  A    between atoms: _260  and  _262
REMARK  101  A    between atoms: _262  and  _263
REMARK  102  A    between atoms: _262  and  _265
REMARK  103  A    between atoms: _265  and  _266
REMARK  104  A    between atoms: _266  and  _267
REMARK  105  A    between atoms: _267  and  _268
REMARK                            x       y       z     vdW  Elec       q    Type
REMARK                         _______ _______ _______ _____ _____    ______ ____
ROOT
ATOM      1  CA  ARG A   4      13.887  16.590   1.637  0.00  0.00    +0.149 C 
ENDROOT
BRANCH   1   2
ATOM      2  C   ARG A   4      14.510  16.256   0.270  0.00  0.00    +0.241 C 
ATOM      3  N   GLN A   5      15.117  15.071   0.130  0.00  0.00    -0.297 N 
ATOM      4  H   GLN A   5      15.209  14.441   0.952  0.00  0.00    +0.150 HD
ATOM      5  O   ARG A   4      14.438  17.071  -0.652  0.00  0.00    -0.273 OA
BRANCH   3   6
ATOM      6  CA  GLN A   5      15.655  14.650  -1.173  0.00  0.00    +0.149 C 
BRANCH   6   7
ATOM      7  C   GLN A   5      14.453  14.297  -2.090  0.00  0.00    +0.241 C 
ATOM      8  N   PHE A   6      13.421  13.665  -1.527  0.00  0.00    -0.297 N 
ATOM      9  H   PHE A   6      13.487  13.389  -0.527  0.00  0.00    +0.150 HD
ATOM     10  O   GLN A   5      14.475  14.599  -3.284  0.00  0.00    -0.273 OA
BRANCH   8  11
ATOM     11  CA  PHE A   6      12.186  13.344  -2.278  0.00  0.00    +0.153 C 
BRANCH  11  12
ATOM     12  C   PHE A   6      11.502  14.652  -2.748  0.00  0.00    +0.241 C 
ATOM     13  N   HIS A   7      11.421  15.639  -1.852  0.00  0.00    -0.297 N 
ATOM     14  H   HIS A   7      11.846  15.524  -0.910  0.00  0.00    +0.150 HD
ATOM     15  O   PHE A   6      11.031  14.752  -3.891  0.00  0.00    -0.273 OA
BRANCH  13  16
ATOM     16  CA  HIS A   7      10.730  16.888  -2.201  0.00  0.00    +0.155 C 
BRANCH  16  17
ATOM     17  C   HIS A   7      11.481  17.638  -3.301  0.00  0.00    +0.241 C 
ATOM     18  N   ALA A   8      12.816  17.660  -3.248  0.00  0.00    -0.298 N 
ATOM     19  H   ALA A   8      13.304  17.194  -2.457  0.00  0.00    +0.150 HD
ATOM     20  O   HIS A   7      10.842  18.180  -4.194  0.00  0.00    -0.273 OA
BRANCH  18  21
ATOM     21  CA  ALA A   8      13.601  18.327  -4.281  0.00  0.00    +0.137 C 
ATOM     22  CB  ALA A   8      15.101  18.366  -3.908  0.00  0.00    +0.030 C 
BRANCH  21  23
ATOM     23  C   ALA A   8      13.399  17.635  -5.628  0.00  0.00    +0.227 C 
ATOM     24  O   ALA A   8      13.358  18.313  -6.663  0.00  0.00    -0.286 OA
ENDBRANCH  21  23
ENDBRANCH  18  21
ENDBRANCH  16  17
BRANCH  16  25
ATOM     25  CB  HIS A   7      10.538  17.788  -0.957  0.00  0.00    +0.076 C 
BRANCH  25  26
ATOM     26  CG  HIS A   7       9.491  18.849  -1.133  0.00  0.00    +0.082 A 
ATOM     27  CD2 HIS A   7       8.195  18.902  -0.738  0.00  0.00    +0.115 A 
ATOM     28  NE2 HIS A   7       7.667  20.079  -1.226  0.00  0.00    -0.221 NA
ATOM     29  CE1 HIS A   7       8.608  20.723  -1.893  0.00  0.00    +0.199 A 
ATOM     30  ND1 HIS A   7       9.718  20.002  -1.853  0.00  0.00    -0.227 NA
ENDBRANCH  25  26
ENDBRANCH  16  25
ENDBRANCH  13  16
ENDBRANCH  11  12
BRANCH  11  31
ATOM     31  CB  PHE A   6      11.142  12.632  -1.400  0.00  0.00    +0.055 C 
BRANCH  31  32
ATOM     32  CG  PHE A   6      11.320  11.137  -1.288  0.00  0.00    -0.020 A 
ATOM     33  CD2 PHE A   6      12.062  10.582  -0.254  0.00  0.00    -0.004 A 
ATOM     34  CE2 PHE A   6      12.157   9.190  -0.095  0.00  0.00    -0.000 A 
ATOM     35  CZ  PHE A   6      11.502   8.338  -0.994  0.00  0.00    -0.000 A 
ATOM     36  CE1 PHE A   6      10.762   8.889  -2.042  0.00  0.00    -0.000 A 
ATOM     37  CD1 PHE A   6      10.671  10.279  -2.186  0.00  0.00    -0.004 A 
ENDBRANCH  31  32
ENDBRANCH  11  31
ENDBRANCH   8  11
ENDBRANCH   6   7
BRANCH   6  38
ATOM     38  CB  GLN A   5      16.601  13.437  -1.023  0.00  0.00    +0.039 C 
BRANCH  38  39
ATOM     39  CG  GLN A   5      17.960  13.785  -0.434  0.00  0.00    +0.087 C 
BRANCH  39  40
ATOM     40  CD  GLN A   5      18.804  12.542  -0.106  0.00  0.00    +0.219 C 
ATOM     41  OE1 GLN A   5      18.330  11.638   0.585  0.00  0.00    -0.275 OA
ATOM     42  NE2 GLN A   5      20.059  12.511  -0.576  0.00  0.00    -0.329 N 
ATOM     43 HE21 GLN A   5      20.675  11.701  -0.361  0.00  0.00    +0.145 HD
ATOM     44 HE22 GLN A   5      20.417  13.297  -1.156  0.00  0.00    +0.145 HD
ENDBRANCH  39  40
ENDBRANCH  38  39
ENDBRANCH   6  38
ENDBRANCH   3   6
ENDBRANCH   1   2
BRANCH   1  46
ATOM     45  C   TYR A   3      12.688  14.563   1.989  0.00  0.00    +0.241 C 
ATOM     46  N   ARG A   4      13.598  15.407   2.465  0.00  0.00    -0.297 N 
ATOM     47  H   ARG A   4      14.079  15.241   3.372  0.00  0.00    +0.150 HD
ATOM     48  O   TYR A   3      12.173  14.736   0.883  0.00  0.00    -0.273 OA
BRANCH  45  49
ATOM     49  CA  TYR A   3      12.304  13.334   2.821  0.00  0.00    +0.153 C 
BRANCH  49  51
ATOM     50  C   ARG A   2      14.476  12.251   2.751  0.00  0.00    +0.241 C 
ATOM     51  N   TYR A   3      13.426  12.645   3.468  0.00  0.00    -0.297 N 
ATOM     52  H   TYR A   3      13.401  12.464   4.492  0.00  0.00    +0.150 HD
ATOM     53  O   ARG A   2      14.551  12.457   1.530  0.00  0.00    -0.273 OA
BRANCH  50  54
ATOM     54  CA  ARG A   2      15.599  11.480   3.490  0.00  0.00    +0.149 C 
BRANCH  54  57
ATOM     55  C   ARG A   1      16.169   9.444   2.262  0.00  0.00    +0.238 C 
ATOM     56  O   ARG A   1      15.289   8.803   2.844  0.00  0.00    -0.274 OA
ATOM     57  N   ARG A   2      16.406  10.740   2.516  0.00  0.00    -0.297 N 
ATOM     58  H   ARG A   2      17.175  11.227   2.013  0.00  0.00    +0.150 HD
BRANCH  55  59
ATOM     59  CA  ARG A   1      17.015   8.769   1.174  0.00  0.00    +0.145 C 
BRANCH  59  60
ATOM     60  N   ARG A   1      17.491   7.420   1.539  0.00  0.00    -0.238 NA
ATOM     61  H   ARG A   1      16.832   6.747   1.980  0.00  0.00    +0.142 HD
ENDBRANCH  59  60
BRANCH  59  62
ATOM     62  CB  ARG A   1      16.152   8.678  -0.112  0.00  0.00    +0.030 C 
BRANCH  62  63
ATOM     63  CG  ARG A   1      16.831   8.029  -1.338  0.00  0.00    +0.045 C 
BRANCH  63  64
ATOM     64  CD  ARG A   1      17.875   8.950  -2.001  0.00  0.00    +0.174 C 
BRANCH  64  65
ATOM     65  NE  ARG A   1      18.502   8.324  -3.170  0.00  0.00    -0.265 N 
ATOM     66  CZ  ARG A   1      19.653   7.654  -3.167  0.00  0.00    +0.342 C 
ATOM     67  NH2 ARG A   1      20.355   7.514  -2.039  0.00  0.00    -0.292 N 
ATOM     68 HH21 ARG A   1      20.004   7.930  -1.153  0.00  0.00    +0.255 HD
ATOM     69 HH22 ARG A   1      21.253   6.989  -2.047  0.00  0.00    +0.255 HD
ATOM     70  NH1 ARG A   1      20.086   7.070  -4.293  0.00  0.00    -0.292 N 
ATOM     71 HH11 ARG A   1      20.984   6.546  -4.295  0.00  0.00    +0.255 HD
ATOM     72 HH12 ARG A   1      19.524   7.141  -5.165  0.00  0.00    +0.255 HD
ATOM     73  HE  ARG A   1      18.005   8.411  -4.079  0.00  0.00    +0.259 HD
ENDBRANCH  64  65
ENDBRANCH  63  64
ENDBRANCH  62  63
ENDBRANCH  59  62
ENDBRANCH  55  59
ENDBRANCH  54  57
BRANCH  54  74
ATOM     74  CB  ARG A   2      16.486  12.439   4.317  0.00  0.00    +0.033 C 
BRANCH  74  75
ATOM     75  CG  ARG A   2      17.221  13.520   3.461  0.00  0.00    +0.045 C 
BRANCH  75  76
ATOM     76  CD  ARG A   2      18.200  14.368   4.341  0.00  0.00    +0.174 C 
BRANCH  76  77
ATOM     77  NE  ARG A   2      17.514  15.213   5.322  0.00  0.00    -0.265 N 
ATOM     78  CZ  ARG A   2      18.158  15.951   6.232  0.00  0.00    +0.342 C 
ATOM     79  NH2 ARG A   2      17.474  16.731   7.071  0.00  0.00    -0.292 N 
ATOM     80 HH21 ARG A   2      17.979  17.303   7.777  0.00  0.00    +0.255 HD
ATOM     81 HH22 ARG A   2      16.436  16.767   7.019  0.00  0.00    +0.255 HD
ATOM     82  NH1 ARG A   2      19.487  15.925   6.278  0.00  0.00    -0.292 N 
ATOM     83 HH11 ARG A   2      19.994  16.497   6.983  0.00  0.00    +0.255 HD
ATOM     84 HH12 ARG A   2      20.019  15.333   5.609  0.00  0.00    +0.255 HD
ATOM     85  HE  ARG A   2      16.474  15.240   5.310  0.00  0.00    +0.259 HD
ENDBRANCH  76  77
ENDBRANCH  75  76
ENDBRANCH  74  75
ENDBRANCH  54  74
ENDBRANCH  50  54
ENDBRANCH  49  51
BRANCH  49  86
ATOM     86  CB  TYR A   3      11.230  13.726   3.847  0.00  0.00    +0.055 C 
BRANCH  86  87
ATOM     87  CG  TYR A   3      10.043  14.488   3.235  0.00  0.00    -0.020 A 
ATOM     88  CD2 TYR A   3      10.099  15.875   3.087  0.00  0.00    -0.001 A 
ATOM     89  CE2 TYR A   3       9.043  16.594   2.491  0.00  0.00    +0.036 A 
ATOM     90  CZ  TYR A   3       7.920  15.918   2.044  0.00  0.00    +0.134 A 
ATOM     91  CE1 TYR A   3       7.835  14.543   2.177  0.00  0.00    +0.036 A 
ATOM     92  CD1 TYR A   3       8.906  13.830   2.779  0.00  0.00    -0.001 A 
BRANCH  90  93
ATOM     93  OH  TYR A   3       6.878  16.623   1.477  0.00  0.00    -0.506 OA
ATOM     94  HH  TYR A   3       6.057  16.484   2.013  0.00  0.00    +0.292 HD
ENDBRANCH  90  93
ENDBRANCH  86  87
ENDBRANCH  49  86
ENDBRANCH  45  49
ENDBRANCH   1  46
BRANCH   1  95
ATOM     95  CB  ARG A   4      14.726  17.643   2.413  0.00  0.00    +0.033 C 
BRANCH  95  96
ATOM     96  CG  ARG A   4      16.166  17.304   2.769  0.00  0.00    +0.045 C 
BRANCH  96  97
ATOM     97  CD  ARG A   4      16.843  18.473   3.626  0.00  0.00    +0.174 C 
BRANCH  97  98
ATOM     98  NE  ARG A   4      16.896  19.712   2.839  0.00  0.00    -0.265 N 
ATOM     99  CZ  ARG A   4      16.039  20.725   2.987  0.00  0.00    +0.342 C 
ATOM    100  NH2 ARG A   4      15.095  20.678   3.918  0.00  0.00    -0.292 N 
ATOM    101 HH21 ARG A   4      15.018  19.848   4.539  0.00  0.00    +0.255 HD
ATOM    102 HH22 ARG A   4      14.432  21.472   4.026  0.00  0.00    +0.255 HD
ATOM    103  NH1 ARG A   4      16.044  21.732   2.117  0.00  0.00    -0.292 N 
ATOM    104 HH11 ARG A   4      15.377  22.521   2.232  0.00  0.00    +0.255 HD
ATOM    105 HH12 ARG A   4      16.715  21.729   1.323  0.00  0.00    +0.255 HD
ATOM    106  HE  ARG A   4      17.645  19.806   2.124  0.00  0.00    +0.259 HD
ENDBRANCH  97  98
ENDBRANCH  96  97
ENDBRANCH  95  96
ENDBRANCH   1  95
TORSDOF 38
REMARK  Name = ../refined-set-2016/1h6h/1h6h_pocket.pdb
REMARK  105 active torsions:
REMARK  status: ('A' for Active; 'I' for Inactive)
REMARK    1  A    between atoms: _1  and  _3
REMARK    2  A    between atoms: _3  and  _4
REMARK    3  A    between atoms: _3  and  _6
REMARK    4  A    between atoms: _6  and  _7
REMARK    5  A    between atoms: _10  and  _12
REMARK    6  A    between atoms: _12  and  _13
REMARK    7  A    between atoms: _12  and  _15
REMARK    8  A    between atoms: _15  and  _16
REMARK    9  A    between atoms: _18  and  _20
REMARK   10  A    between atoms: _20  and  _21
REMARK   11  A    between atoms: _20  and  _23
REMARK   12  A    between atoms: _23  and  _24
REMARK   13  A    between atoms: _29  and  _31
REMARK   14  A    between atoms: _31  and  _32
REMARK   15  A    between atoms: _31  and  _34
REMARK   16  A    between atoms: _34  and  _35
REMARK   17  A    between atoms: _41  and  _43
REMARK   18  A    between atoms: _43  and  _44
REMARK   19  A    between atoms: _43  and  _46
REMARK   20  A    between atoms: _49  and  _51
REMARK   21  A    between atoms: _51  and  _52
REMARK   22  A    between atoms: _51  and  _54
REMARK   23  A    between atoms: _54  and  _55
REMARK   24  A    between atoms: _61  and  _63
REMARK   25  A    between atoms: _63  and  _64
REMARK   26  A    between atoms: _63  and  _66
REMARK   27  A    between atoms: _66  and  _67
REMARK   28  A    between atoms: _67  and  _68
REMARK   29  A    between atoms: _68  and  _69
REMARK   30  A    between atoms: _78  and  _80
REMARK   31  A    between atoms: _80  and  _81
REMARK   32  A    between atoms: _80  and  _83
REMARK   33  A    between atoms: _83  and  _84
REMARK   34  A    between atoms: _84  and  _85
REMARK   35  A    between atoms: _85  and  _86
REMARK   36  A    between atoms: _95  and  _97
REMARK   37  A    between atoms: _97  and  _98
REMARK   38  A    between atoms: _97  and  _100
REMARK   39  A    between atoms: _100  and  _101
REMARK   40  A    between atoms: _106  and  _107
REMARK   41  A    between atoms: _109  and  _111
REMARK   42  A    between atoms: _111  and  _112
REMARK   43  A    between atoms: _111  and  _114
REMARK   44  A    between atoms: _114  and  _115
REMARK   45  A    between atoms: _115  and  _116
REMARK   46  A    between atoms: _116  and  _117
REMARK   47  A    between atoms: _126  and  _128
REMARK   48  A    between atoms: _128  and  _129
REMARK   49  A    between atoms: _128  and  _131
REMARK   50  A    between atoms: _131  and  _132
REMARK   51  A    between atoms: _132  and  _133
REMARK   52  A    between atoms: _138  and  _140
REMARK   53  A    between atoms: _140  and  _141
REMARK   54  A    between atoms: _140  and  _143
REMARK   55  A    between atoms: _143  and  _144
REMARK   56  A    between atoms: _150  and  _152
REMARK   57  A    between atoms: _152  and  _153
REMARK   58  A    between atoms: _152  and  _155
REMARK   59  A    between atoms: _155  and  _156
REMARK   60  A    between atoms: _161  and  _163
REMARK   61  A    between atoms: _163  and  _164
REMARK   62  A    between atoms: _167  and  _169
REMARK   63  A    between atoms: _169  and  _170
REMARK   64  A    between atoms: _169  and  _172
REMARK   65  A    between atoms: _172  and  _173
REMARK   66  A    between atoms: _177  and  _178
REMARK   67  A    between atoms: _183  and  _185
REMARK   68  A    between atoms: _185  and  _186
REMARK   69  A    between atoms: _189  and  _191
REMARK   70  A    between atoms: _191  and  _192
REMARK   71  A    between atoms: _191  and  _194
REMARK   72  A    between atoms: _194  and  _195
REMARK   73  A    between atoms: _195  and  _196
REMARK   74  A    between atoms: _196  and  _197
REMARK   75  A    between atoms: _197  and  _198
REMARK   76  A    between atoms: _202  and  _204
REMARK   77  A    between atoms: _204  and  _205
REMARK   78  A    between atoms: _204  and  _207
REMARK   79  A    between atoms: _210  and  _212
REMARK   80  A    between atoms: _212  and  _213
REMARK   81  A    between atoms: _212  and  _215
REMARK   82  A    between atoms: _215  and  _216
REMARK   83  A    between atoms: _221  and  _222
REMARK   84  A    between atoms: _224  and  _226
REMARK   85  A    between atoms: _226  and  _227
REMARK   86  A    between atoms: _226  and  _229
REMARK   87  A    between atoms: _232  and  _234
REMARK   88  A    between atoms: _234  and  _235
REMARK   89  A    between atoms: _234  and  _237
REMARK   90  A    between atoms: _237  and  _238
REMARK   91  A    between atoms: _238  and  _239
REMARK   92  A    between atoms: _239  and  _240
REMARK   93  A    between atoms: _240  and  _241
REMARK   94  A    between atoms: _245  and  _247
REMARK   95  A    between atoms: _247  and  _248
REMARK   96  A    between atoms: _247  and  _250
REMARK   97  A    between atoms: _250  and  _251
REMARK   98  A    between atoms: _254  and  _256
REMARK   99  A    between atoms: _256  and  _257
REMARK  100  A    between atoms: _260  and  _262
REMARK  101  A    between atoms: _262  and  _263
REMARK  102  A    between atoms: _262  and  _265
REMARK  103  A    between atoms: _265  and  _266
REMARK  104  A    between atoms: _266  and  _267
REMARK  105  A    between atoms: _267  and  _268
REMARK                            x       y       z     vdW  Elec       q    Type
REMARK                         _______ _______ _______ _____ _____    ______ ____
ROOT
ATOM      1  CA  LYS A   4       5.672  18.920   4.272  0.00  0.00    +0.149 C 
ENDROOT
BRANCH   1   4
ATOM      2  C   ALA A   3       4.166  17.341   3.218  0.00  0.00    +0.241 C 
ATOM      3  O   ALA A   3       4.339  16.509   4.117  0.00  0.00    -0.273 OA
ATOM      4  N   LYS A   4       4.780  18.516   3.193  0.00  0.00    -0.297 N 
ATOM      5  H   LYS A   4       4.622  19.159   2.391  0.00  0.00    +0.150 HD
BRANCH   2   6
ATOM      6  CA  ALA A   3       3.222  17.079   2.041  0.00  0.00    +0.149 C 
ATOM      7  CB  ALA A   3       1.974  17.966   2.178  0.00  0.00    +0.031 C 
BRANCH   6   9
ATOM      8  C   PRO A   2       3.608  14.826   1.177  0.00  0.00    +0.241 C 
ATOM      9  N   ALA A   3       2.793  15.704   1.758  0.00  0.00    -0.297 N 
ATOM     10  H   ALA A   3       1.830  15.409   2.017  0.00  0.00    +0.150 HD
ATOM     11  O   PRO A   2       4.793  15.066   0.955  0.00  0.00    -0.273 OA
BRANCH   8  14
ATOM     12  C   LEU A   1       3.469  13.970  -1.525  0.00  0.00    +0.241 C 
ATOM     13  N   PRO A   2       3.560  13.112  -0.498  0.00  0.00    -0.272 N 
ATOM     14  CA  PRO A   2       3.029  13.449   0.830  0.00  0.00    +0.152 C 
ATOM     15  CB  PRO A   2       3.615  12.358   1.722  0.00  0.00    +0.031 C 
ATOM     16  CG  PRO A   2       3.762  11.209   0.807  0.00  0.00    +0.024 C 
ATOM     17  CD  PRO A   2       4.220  11.793  -0.491  0.00  0.00    +0.094 C 
ATOM     18  O   LEU A   1       2.903  15.064  -1.406  0.00  0.00    -0.273 OA
BRANCH  12  19
ATOM     19  CA  LEU A   1       4.070  13.542  -2.863  0.00  0.00    +0.145 C 
BRANCH  19  20
ATOM     20  N   LEU A   1       3.172  13.940  -3.959  0.00  0.00    -0.238 NA
ATOM     21  H   LEU A   1       3.340  14.837  -4.458  0.00  0.00    +0.142 HD
ENDBRANCH  19  20
BRANCH  19  22
ATOM     22  CB  LEU A   1       5.463  14.210  -3.024  0.00  0.00    +0.026 C 
BRANCH  22  23
ATOM     23  CG  LEU A   1       6.594  13.903  -2.015  0.00  0.00    +0.002 C 
ATOM     24  CD2 LEU A   1       7.692  15.000  -2.047  0.00  0.00    +0.000 C 
ATOM     25  CD1 LEU A   1       7.248  12.559  -2.372  0.00  0.00    +0.000 C 
ENDBRANCH  22  23
ENDBRANCH  19  22
ENDBRANCH  12  19
ENDBRANCH   8  14
ENDBRANCH   6   9
ENDBRANCH   2   6
ENDBRANCH   1   4
BRANCH   1  26
ATOM     26  C   LYS A   4       4.863  19.037   5.548  0.00  0.00    +0.241 C 
ATOM     27  N   VAL A   5       5.526  18.810   6.680  0.00  0.00    -0.297 N 
ATOM     28  H   VAL A   5       6.528  18.539   6.622  0.00  0.00    +0.150 HD
ATOM     29  O   LYS A   4       3.664  19.323   5.505  0.00  0.00    -0.273 OA
BRANCH  27  30
ATOM     30  CA  VAL A   5       4.911  18.924   7.995  0.00  0.00    +0.149 C 
BRANCH  30  31
ATOM     31  C   VAL A   5       5.916  19.784   8.776  0.00  0.00    +0.241 C 
ATOM     32  O   VAL A   5       7.010  19.337   9.130  0.00  0.00    -0.273 OA
ATOM     33  N   TYR A   6       5.559  21.047   9.011  0.00  0.00    -0.297 N 
ATOM     34  H   TYR A   6       4.620  21.381   8.713  0.00  0.00    +0.150 HD
BRANCH  33  35
ATOM     35  CA  TYR A   6       6.476  21.967   9.685  0.00  0.00    +0.153 C 
BRANCH  35  36
ATOM     36  C   TYR A   6       6.877  21.643  11.119  0.00  0.00    +0.241 C 
ATOM     37  N   VAL A   7       5.921  21.249  11.951  0.00  0.00    -0.298 N 
ATOM     38  H   VAL A   7       4.943  21.165  11.607  0.00  0.00    +0.150 HD
ATOM     39  O   TYR A   6       8.052  21.769  11.467  0.00  0.00    -0.273 OA
BRANCH  37  40
ATOM     40  CA  VAL A   7       6.227  20.931  13.346  0.00  0.00    +0.137 C 
BRANCH  40  41
ATOM     41  CB  VAL A   7       5.756  22.068  14.303  0.00  0.00    +0.026 C 
ATOM     42  CG2 VAL A   7       4.242  22.017  14.476  0.00  0.00    +0.002 C 
ATOM     43  CG1 VAL A   7       6.197  23.424  13.765  0.00  0.00    +0.002 C 
ENDBRANCH  40  41
BRANCH  40  44
ATOM     44  C   VAL A   7       5.578  19.624  13.805  0.00  0.00    +0.227 C 
ATOM     45  O   VAL A   7       4.590  19.171  13.228  0.00  0.00    -0.286 OA
ENDBRANCH  40  44
ENDBRANCH  37  40
ENDBRANCH  35  36
BRANCH  35  46
ATOM     46  CB  TYR A   6       5.921  23.398   9.639  0.00  0.00    +0.055 C 
BRANCH  46  47
ATOM     47  CG  TYR A   6       5.978  24.058   8.274  0.00  0.00    -0.020 A 
ATOM     48  CD2 TYR A   6       5.770  25.433   8.144  0.00  0.00    -0.001 A 
ATOM     49  CE2 TYR A   6       5.819  26.062   6.896  0.00  0.00    +0.036 A 
ATOM     50  CZ  TYR A   6       6.077  25.312   5.759  0.00  0.00    +0.134 A 
ATOM     51  CE1 TYR A   6       6.288  23.938   5.860  0.00  0.00    +0.036 A 
ATOM     52  CD1 TYR A   6       6.237  23.322   7.119  0.00  0.00    -0.001 A 
BRANCH  50  53
ATOM     53  OH  TYR A   6       6.123  25.937   4.525  0.00  0.00    -0.506 OA
ATOM     54  HH  TYR A   6       6.316  25.266   3.823  0.00  0.00    +0.292 HD
ENDBRANCH  50  53
ENDBRANCH  46  47
ENDBRANCH  35  46
ENDBRANCH  33  35
ENDBRANCH  30  31
BRANCH  30  55
ATOM     55  CB  VAL A   5       4.716  17.519   8.652  0.00  0.00    +0.027 C 
ATOM     56  CG2 VAL A   5       4.099  17.661  10.025  0.00  0.00    +0.002 C 
ATOM     57  CG1 VAL A   5       3.800  16.644   7.762  0.00  0.00    +0.002 C 
ENDBRANCH  30  55
ENDBRANCH  27  30
ENDBRANCH   1  26
BRANCH   1  58
ATOM     58  CB  LYS A   4       6.305  20.289   3.976  0.00  0.00    +0.029 C 
BRANCH  58  59
ATOM     59  CG  LYS A   4       7.192  20.345   2.736  0.00  0.00    +0.000 C 
BRANCH  59  60
ATOM     60  CD  LYS A   4       7.992  21.684   2.701  0.00  0.00    -0.024 C 
BRANCH  60  61
ATOM     61  CE  LYS A   4       8.970  21.741   1.527  0.00  0.00    -0.086 C 
BRANCH  61  62
ATOM     62  NZ  LYS A   4       9.576  23.136   1.381  0.00  0.00    +0.380 N 
ATOM     63  HZ1 LYS A   4      10.087  23.383   2.252  0.00  0.00    -0.089 HD
ATOM     64  HZ2 LYS A   4       8.817  23.827   1.215  0.00  0.00    -0.089 HD
ATOM     65  HZ3 LYS A   4      10.235  23.144   0.577  0.00  0.00    -0.089 HD
ENDBRANCH  61  62
ENDBRANCH  60  61
ENDBRANCH  59  60
ENDBRANCH  58  59
ENDBRANCH   1  58
TORSDOF 25
REMARK  Name = ../refined-set-2016/1h6h/1h6h_pocket.pdb
REMARK  105 active torsions:
REMARK  status: ('A' for Active; 'I' for Inactive)
REMARK    1  A    between atoms: _1  and  _3
REMARK    2  A    between atoms: _3  and  _4
REMARK    3  A    between atoms: _3  and  _6
REMARK    4  A    between atoms: _6  and  _7
REMARK    5  A    between atoms: _10  and  _12
REMARK    6  A    between atoms: _12  and  _13
REMARK    7  A    between atoms: _12  and  _15
REMARK    8  A    between atoms: _15  and  _16
REMARK    9  A    between atoms: _18  and  _20
REMARK   10  A    between atoms: _20  and  _21
REMARK   11  A    between atoms: _20  and  _23
REMARK   12  A    between atoms: _23  and  _24
REMARK   13  A    between atoms: _29  and  _31
REMARK   14  A    between atoms: _31  and  _32
REMARK   15  A    between atoms: _31  and  _34
REMARK   16  A    between atoms: _34  and  _35
REMARK   17  A    between atoms: _41  and  _43
REMARK   18  A    between atoms: _43  and  _44
REMARK   19  A    between atoms: _43  and  _46
REMARK   20  A    between atoms: _49  and  _51
REMARK   21  A    between atoms: _51  and  _52
REMARK   22  A    between atoms: _51  and  _54
REMARK   23  A    between atoms: _54  and  _55
REMARK   24  A    between atoms: _61  and  _63
REMARK   25  A    between atoms: _63  and  _64
REMARK   26  A    between atoms: _63  and  _66
REMARK   27  A    between atoms: _66  and  _67
REMARK   28  A    between atoms: _67  and  _68
REMARK   29  A    between atoms: _68  and  _69
REMARK   30  A    between atoms: _78  and  _80
REMARK   31  A    between atoms: _80  and  _81
REMARK   32  A    between atoms: _80  and  _83
REMARK   33  A    between atoms: _83  and  _84
REMARK   34  A    between atoms: _84  and  _85
REMARK   35  A    between atoms: _85  and  _86
REMARK   36  A    between atoms: _95  and  _97
REMARK   37  A    between atoms: _97  and  _98
REMARK   38  A    between atoms: _97  and  _100
REMARK   39  A    between atoms: _100  and  _101
REMARK   40  A    between atoms: _106  and  _107
REMARK   41  A    between atoms: _109  and  _111
REMARK   42  A    between atoms: _111  and  _112
REMARK   43  A    between atoms: _111  and  _114
REMARK   44  A    between atoms: _114  and  _115
REMARK   45  A    between atoms: _115  and  _116
REMARK   46  A    between atoms: _116  and  _117
REMARK   47  A    between atoms: _126  and  _128
REMARK   48  A    between atoms: _128  and  _129
REMARK   49  A    between atoms: _128  and  _131
REMARK   50  A    between atoms: _131  and  _132
REMARK   51  A    between atoms: _132  and  _133
REMARK   52  A    between atoms: _138  and  _140
REMARK   53  A    between atoms: _140  and  _141
REMARK   54  A    between atoms: _140  and  _143
REMARK   55  A    between atoms: _143  and  _144
REMARK   56  A    between atoms: _150  and  _152
REMARK   57  A    between atoms: _152  and  _153
REMARK   58  A    between atoms: _152  and  _155
REMARK   59  A    between atoms: _155  and  _156
REMARK   60  A    between atoms: _161  and  _163
REMARK   61  A    between atoms: _163  and  _164
REMARK   62  A    between atoms: _167  and  _169
REMARK   63  A    between atoms: _169  and  _170
REMARK   64  A    between atoms: _169  and  _172
REMARK   65  A    between atoms: _172  and  _173
REMARK   66  A    between atoms: _177  and  _178
REMARK   67  A    between atoms: _183  and  _185
REMARK   68  A    between atoms: _185  and  _186
REMARK   69  A    between atoms: _189  and  _191
REMARK   70  A    between atoms: _191  and  _192
REMARK   71  A    between atoms: _191  and  _194
REMARK   72  A    between atoms: _194  and  _195
REMARK   73  A    between atoms: _195  and  _196
REMARK   74  A    between atoms: _196  and  _197
REMARK   75  A    between atoms: _197  and  _198
REMARK   76  A    between atoms: _202  and  _204
REMARK   77  A    between atoms: _204  and  _205
REMARK   78  A    between atoms: _204  and  _207
REMARK   79  A    between atoms: _210  and  _212
REMARK   80  A    between atoms: _212  and  _213
REMARK   81  A    between atoms: _212  and  _215
REMARK   82  A    between atoms: _215  and  _216
REMARK   83  A    between atoms: _221  and  _222
REMARK   84  A    between atoms: _224  and  _226
REMARK   85  A    between atoms: _226  and  _227
REMARK   86  A    between atoms: _226  and  _229
REMARK   87  A    between atoms: _232  and  _234
REMARK   88  A    between atoms: _234  and  _235
REMARK   89  A    between atoms: _234  and  _237
REMARK   90  A    between atoms: _237  and  _238
REMARK   91  A    between atoms: _238  and  _239
REMARK   92  A    between atoms: _239  and  _240
REMARK   93  A    between atoms: _240  and  _241
REMARK   94  A    between atoms: _245  and  _247
REMARK   95  A    between atoms: _247  and  _248
REMARK   96  A    between atoms: _247  and  _250
REMARK   97  A    between atoms: _250  and  _251
REMARK   98  A    between atoms: _254  and  _256
REMARK   99  A    between atoms: _256  and  _257
REMARK  100  A    between atoms: _260  and  _262
REMARK  101  A    between atoms: _262  and  _263
REMARK  102  A    between atoms: _262  and  _265
REMARK  103  A    between atoms: _265  and  _266
REMARK  104  A    between atoms: _266  and  _267
REMARK  105  A    between atoms: _267  and  _268
REMARK                            x       y       z     vdW  Elec       q    Type
REMARK                         _______ _______ _______ _____ _____    ______ ____
ROOT
ATOM      1  CG  LYS A   1      11.336  15.644  13.602  0.00  0.00    -0.000 C 
ENDROOT
BRANCH   1   2
ATOM      2  CB  LYS A   1      11.223  14.133  13.869  0.00  0.00    +0.025 C 
BRANCH   2   3
ATOM      3  CA  LYS A   1       9.765  13.648  13.900  0.00  0.00    +0.133 C 
BRANCH   3   4
ATOM      4  N   LYS A   1       9.097  14.165  15.110  0.00  0.00    -0.239 NA
ATOM      5  H   LYS A   1       9.638  14.741  15.786  0.00  0.00    +0.142 HD
ENDBRANCH   3   4
BRANCH   3   6
ATOM      6  C   LYS A   1       9.690  12.140  13.615  0.00  0.00    +0.224 C 
ATOM      7  O   LYS A   1       9.508  11.727  12.456  0.00  0.00    -0.287 OA
ENDBRANCH   3   6
ENDBRANCH   2   3
ENDBRANCH   1   2
BRANCH   1   8
ATOM      8  CD  LYS A   1      12.773  16.157  13.688  0.00  0.00    -0.024 C 
BRANCH   8   9
ATOM      9  CE  LYS A   1      12.822  17.659  13.385  0.00  0.00    -0.086 C 
BRANCH   9  10
ATOM     10  NZ  LYS A   1      14.225  18.186  13.372  0.00  0.00    +0.380 N 
ATOM     11  HZ1 LYS A   1      14.662  18.028  14.302  0.00  0.00    -0.089 HD
ATOM     12  HZ2 LYS A   1      14.209  19.205  13.163  0.00  0.00    -0.089 HD
ATOM     13  HZ3 LYS A   1      14.774  17.689  12.641  0.00  0.00    -0.089 HD
ENDBRANCH   9  10
ENDBRANCH   8   9
ENDBRANCH   1   8
TORSDOF 7
REMARK  Name = ../refined-set-2016/1h6h/1h6h_pocket.pdb
REMARK  105 active torsions:
REMARK  status: ('A' for Active; 'I' for Inactive)
REMARK    1  A    between atoms: _1  and  _3
REMARK    2  A    between atoms: _3  and  _4
REMARK    3  A    between atoms: _3  and  _6
REMARK    4  A    between atoms: _6  and  _7
REMARK    5  A    between atoms: _10  and  _12
REMARK    6  A    between atoms: _12  and  _13
REMARK    7  A    between atoms: _12  and  _15
REMARK    8  A    between atoms: _15  and  _16
REMARK    9  A    between atoms: _18  and  _20
REMARK   10  A    between atoms: _20  and  _21
REMARK   11  A    between atoms: _20  and  _23
REMARK   12  A    between atoms: _23  and  _24
REMARK   13  A    between atoms: _29  and  _31
REMARK   14  A    between atoms: _31  and  _32
REMARK   15  A    between atoms: _31  and  _34
REMARK   16  A    between atoms: _34  and  _35
REMARK   17  A    between atoms: _41  and  _43
REMARK   18  A    between atoms: _43  and  _44
REMARK   19  A    between atoms: _43  and  _46
REMARK   20  A    between atoms: _49  and  _51
REMARK   21  A    between atoms: _51  and  _52
REMARK   22  A    between atoms: _51  and  _54
REMARK   23  A    between atoms: _54  and  _55
REMARK   24  A    between atoms: _61  and  _63
REMARK   25  A    between atoms: _63  and  _64
REMARK   26  A    between atoms: _63  and  _66
REMARK   27  A    between atoms: _66  and  _67
REMARK   28  A    between atoms: _67  and  _68
REMARK   29  A    between atoms: _68  and  _69
REMARK   30  A    between atoms: _78  and  _80
REMARK   31  A    between atoms: _80  and  _81
REMARK   32  A    between atoms: _80  and  _83
REMARK   33  A    between atoms: _83  and  _84
REMARK   34  A    between atoms: _84  and  _85
REMARK   35  A    between atoms: _85  and  _86
REMARK   36  A    between atoms: _95  and  _97
REMARK   37  A    between atoms: _97  and  _98
REMARK   38  A    between atoms: _97  and  _100
REMARK   39  A    between atoms: _100  and  _101
REMARK   40  A    between atoms: _106  and  _107
REMARK   41  A    between atoms: _109  and  _111
REMARK   42  A    between atoms: _111  and  _112
REMARK   43  A    between atoms: _111  and  _114
REMARK   44  A    between atoms: _114  and  _115
REMARK   45  A    between atoms: _115  and  _116
REMARK   46  A    between atoms: _116  and  _117
REMARK   47  A    between atoms: _126  and  _128
REMARK   48  A    between atoms: _128  and  _129
REMARK   49  A    between atoms: _128  and  _131
REMARK   50  A    between atoms: _131  and  _132
REMARK   51  A    between atoms: _132  and  _133
REMARK   52  A    between atoms: _138  and  _140
REMARK   53  A    between atoms: _140  and  _141
REMARK   54  A    between atoms: _140  and  _143
REMARK   55  A    between atoms: _143  and  _144
REMARK   56  A    between atoms: _150  and  _152
REMARK   57  A    between atoms: _152  and  _153
REMARK   58  A    between atoms: _152  and  _155
REMARK   59  A    between atoms: _155  and  _156
REMARK   60  A    between atoms: _161  and  _163
REMARK   61  A    between atoms: _163  and  _164
REMARK   62  A    between atoms: _167  and  _169
REMARK   63  A    between atoms: _169  and  _170
REMARK   64  A    between atoms: _169  and  _172
REMARK   65  A    between atoms: _172  and  _173
REMARK   66  A    between atoms: _177  and  _178
REMARK   67  A    between atoms: _183  and  _185
REMARK   68  A    between atoms: _185  and  _186
REMARK   69  A    between atoms: _189  and  _191
REMARK   70  A    between atoms: _191  and  _192
REMARK   71  A    between atoms: _191  and  _194
REMARK   72  A    between atoms: _194  and  _195
REMARK   73  A    between atoms: _195  and  _196
REMARK   74  A    between atoms: _196  and  _197
REMARK   75  A    between atoms: _197  and  _198
REMARK   76  A    between atoms: _202  and  _204
REMARK   77  A    between atoms: _204  and  _205
REMARK   78  A    between atoms: _204  and  _207
REMARK   79  A    between atoms: _210  and  _212
REMARK   80  A    between atoms: _212  and  _213
REMARK   81  A    between atoms: _212  and  _215
REMARK   82  A    between atoms: _215  and  _216
REMARK   83  A    between atoms: _221  and  _222
REMARK   84  A    between atoms: _224  and  _226
REMARK   85  A    between atoms: _226  and  _227
REMARK   86  A    between atoms: _226  and  _229
REMARK   87  A    between atoms: _232  and  _234
REMARK   88  A    between atoms: _234  and  _235
REMARK   89  A    between atoms: _234  and  _237
REMARK   90  A    between atoms: _237  and  _238
REMARK   91  A    between atoms: _238  and  _239
REMARK   92  A    between atoms: _239  and  _240
REMARK   93  A    between atoms: _240  and  _241
REMARK   94  A    between atoms: _245  and  _247
REMARK   95  A    between atoms: _247  and  _248
REMARK   96  A    between atoms: _247  and  _250
REMARK   97  A    between atoms: _250  and  _251
REMARK   98  A    between atoms: _254  and  _256
REMARK   99  A    between atoms: _256  and  _257
REMARK  100  A    between atoms: _260  and  _262
REMARK  101  A    between atoms: _262  and  _263
REMARK  102  A    between atoms: _262  and  _265
REMARK  103  A    between atoms: _265  and  _266
REMARK  104  A    between atoms: _266  and  _267
REMARK  105  A    between atoms: _267  and  _268
REMARK                            x       y       z     vdW  Elec       q    Type
REMARK                         _______ _______ _______ _____ _____    ______ ____
ROOT
ATOM      1  C   ILE A   1       6.566  10.858  10.074  0.00  0.00    +0.238 C 
ATOM      2  N   ALA A   2       7.784  10.400  10.359  0.00  0.00    -0.298 N 
ATOM      3  H   ALA A   2       8.263  10.734  11.219  0.00  0.00    +0.150 HD
ATOM      4  O   ILE A   1       5.946  10.509   9.072  0.00  0.00    -0.274 OA
ENDROOT
BRANCH   2   5
ATOM      5  CA  ALA A   2       8.467   9.434   9.487  0.00  0.00    +0.137 C 
ATOM      6  CB  ALA A   2       9.883   9.142  10.013  0.00  0.00    +0.030 C 
BRANCH   5   7
ATOM      7  C   ALA A   2       7.689   8.114   9.354  0.00  0.00    +0.227 C 
ATOM      8  O   ALA A   2       7.538   7.605   8.246  0.00  0.00    -0.286 OA
ENDBRANCH   5   7
ENDBRANCH   2   5
BRANCH   1   9
ATOM      9  CA  ILE A   1       5.943  11.844  11.075  0.00  0.00    +0.145 C 
BRANCH   9  10
ATOM     10  N   ILE A   1       6.157  11.313  12.418  0.00  0.00    -0.238 NA
ATOM     11  H   ILE A   1       6.733  11.849  13.098  0.00  0.00    +0.142 HD
ENDBRANCH   9  10
BRANCH   9  12
ATOM     12  CB  ILE A   1       6.596  13.251  10.939  0.00  0.00    +0.025 C 
ATOM     13  CG2 ILE A   1       6.677  13.671   9.475  0.00  0.00    +0.002 C 
BRANCH  12  14
ATOM     14  CG1 ILE A   1       5.791  14.266  11.761  0.00  0.00    +0.002 C 
ATOM     15  CD1 ILE A   1       6.475  15.646  11.870  0.00  0.00    +0.000 C 
ENDBRANCH  12  14
ENDBRANCH   9  12
ENDBRANCH   1   9
TORSDOF 6
REMARK  Name = ../refined-set-2016/1h6h/1h6h_pocket.pdb
REMARK  105 active torsions:
REMARK  status: ('A' for Active; 'I' for Inactive)
REMARK    1  A    between atoms: _1  and  _3
REMARK    2  A    between atoms: _3  and  _4
REMARK    3  A    between atoms: _3  and  _6
REMARK    4  A    between atoms: _6  and  _7
REMARK    5  A    between atoms: _10  and  _12
REMARK    6  A    between atoms: _12  and  _13
REMARK    7  A    between atoms: _12  and  _15
REMARK    8  A    between atoms: _15  and  _16
REMARK    9  A    between atoms: _18  and  _20
REMARK   10  A    between atoms: _20  and  _21
REMARK   11  A    between atoms: _20  and  _23
REMARK   12  A    between atoms: _23  and  _24
REMARK   13  A    between atoms: _29  and  _31
REMARK   14  A    between atoms: _31  and  _32
REMARK   15  A    between atoms: _31  and  _34
REMARK   16  A    between atoms: _34  and  _35
REMARK   17  A    between atoms: _41  and  _43
REMARK   18  A    between atoms: _43  and  _44
REMARK   19  A    between atoms: _43  and  _46
REMARK   20  A    between atoms: _49  and  _51
REMARK   21  A    between atoms: _51  and  _52
REMARK   22  A    between atoms: _51  and  _54
REMARK   23  A    between atoms: _54  and  _55
REMARK   24  A    between atoms: _61  and  _63
REMARK   25  A    between atoms: _63  and  _64
REMARK   26  A    between atoms: _63  and  _66
REMARK   27  A    between atoms: _66  and  _67
REMARK   28  A    between atoms: _67  and  _68
REMARK   29  A    between atoms: _68  and  _69
REMARK   30  A    between atoms: _78  and  _80
REMARK   31  A    between atoms: _80  and  _81
REMARK   32  A    between atoms: _80  and  _83
REMARK   33  A    between atoms: _83  and  _84
REMARK   34  A    between atoms: _84  and  _85
REMARK   35  A    between atoms: _85  and  _86
REMARK   36  A    between atoms: _95  and  _97
REMARK   37  A    between atoms: _97  and  _98
REMARK   38  A    between atoms: _97  and  _100
REMARK   39  A    between atoms: _100  and  _101
REMARK   40  A    between atoms: _106  and  _107
REMARK   41  A    between atoms: _109  and  _111
REMARK   42  A    between atoms: _111  and  _112
REMARK   43  A    between atoms: _111  and  _114
REMARK   44  A    between atoms: _114  and  _115
REMARK   45  A    between atoms: _115  and  _116
REMARK   46  A    between atoms: _116  and  _117
REMARK   47  A    between atoms: _126  and  _128
REMARK   48  A    between atoms: _128  and  _129
REMARK   49  A    between atoms: _128  and  _131
REMARK   50  A    between atoms: _131  and  _132
REMARK   51  A    between atoms: _132  and  _133
REMARK   52  A    between atoms: _138  and  _140
REMARK   53  A    between atoms: _140  and  _141
REMARK   54  A    between atoms: _140  and  _143
REMARK   55  A    between atoms: _143  and  _144
REMARK   56  A    between atoms: _150  and  _152
REMARK   57  A    between atoms: _152  and  _153
REMARK   58  A    between atoms: _152  and  _155
REMARK   59  A    between atoms: _155  and  _156
REMARK   60  A    between atoms: _161  and  _163
REMARK   61  A    between atoms: _163  and  _164
REMARK   62  A    between atoms: _167  and  _169
REMARK   63  A    between atoms: _169  and  _170
REMARK   64  A    between atoms: _169  and  _172
REMARK   65  A    between atoms: _172  and  _173
REMARK   66  A    between atoms: _177  and  _178
REMARK   67  A    between atoms: _183  and  _185
REMARK   68  A    between atoms: _185  and  _186
REMARK   69  A    between atoms: _189  and  _191
REMARK   70  A    between atoms: _191  and  _192
REMARK   71  A    between atoms: _191  and  _194
REMARK   72  A    between atoms: _194  and  _195
REMARK   73  A    between atoms: _195  and  _196
REMARK   74  A    between atoms: _196  and  _197
REMARK   75  A    between atoms: _197  and  _198
REMARK   76  A    between atoms: _202  and  _204
REMARK   77  A    between atoms: _204  and  _205
REMARK   78  A    between atoms: _204  and  _207
REMARK   79  A    between atoms: _210  and  _212
REMARK   80  A    between atoms: _212  and  _213
REMARK   81  A    between atoms: _212  and  _215
REMARK   82  A    between atoms: _215  and  _216
REMARK   83  A    between atoms: _221  and  _222
REMARK   84  A    between atoms: _224  and  _226
REMARK   85  A    between atoms: _226  and  _227
REMARK   86  A    between atoms: _226  and  _229
REMARK   87  A    between atoms: _232  and  _234
REMARK   88  A    between atoms: _234  and  _235
REMARK   89  A    between atoms: _234  and  _237
REMARK   90  A    between atoms: _237  and  _238
REMARK   91  A    between atoms: _238  and  _239
REMARK   92  A    between atoms: _239  and  _240
REMARK   93  A    between atoms: _240  and  _241
REMARK   94  A    between atoms: _245  and  _247
REMARK   95  A    between atoms: _247  and  _248
REMARK   96  A    between atoms: _247  and  _250
REMARK   97  A    between atoms: _250  and  _251
REMARK   98  A    between atoms: _254  and  _256
REMARK   99  A    between atoms: _256  and  _257
REMARK  100  A    between atoms: _260  and  _262
REMARK  101  A    between atoms: _262  and  _263
REMARK  102  A    between atoms: _262  and  _265
REMARK  103  A    between atoms: _265  and  _266
REMARK  104  A    between atoms: _266  and  _267
REMARK  105  A    between atoms: _267  and  _268
REMARK                            x       y       z     vdW  Elec       q    Type
REMARK                         _______ _______ _______ _____ _____    ______ ____
ROOT
ATOM      1  NE  ARG A   1       6.634  13.335   5.723  0.00  0.00    -0.265 N 
ATOM      2  CZ  ARG A   1       7.388  14.392   6.024  0.00  0.00    +0.342 C 
ATOM      3  NH2 ARG A   1       8.644  14.218   6.433  0.00  0.00    -0.292 N 
ATOM      4 HH21 ARG A   1       9.233  15.042   6.668  0.00  0.00    +0.255 HD
ATOM      5 HH22 ARG A   1       9.035  13.258   6.517  0.00  0.00    +0.255 HD
ATOM      6  NH1 ARG A   1       6.897  15.625   5.869  0.00  0.00    -0.292 N 
ATOM      7 HH11 ARG A   1       7.483  16.451   6.103  0.00  0.00    +0.255 HD
ATOM      8 HH12 ARG A   1       5.929  15.758   5.514  0.00  0.00    +0.255 HD
ATOM      9  HE  ARG A   1       5.654  13.505   5.421  0.00  0.00    +0.259 HD
ENDROOT
BRANCH   1  10
ATOM     10  CD  ARG A   1       7.102  11.944   5.792  0.00  0.00    +0.174 C 
BRANCH  10  11
ATOM     11  CG  ARG A   1       5.917  10.975   5.664  0.00  0.00    +0.045 C 
BRANCH  11  12
ATOM     12  CB  ARG A   1       6.363   9.522   5.543  0.00  0.00    +0.029 C 
BRANCH  12  13
ATOM     13  CA  ARG A   1       5.194   8.517   5.690  0.00  0.00    +0.133 C 
BRANCH  13  14
ATOM     14  N   ARG A   1       4.776   8.407   7.090  0.00  0.00    -0.239 NA
ATOM     15  H   ARG A   1       5.419   8.734   7.840  0.00  0.00    +0.142 HD
ENDBRANCH  13  14
BRANCH  13  16
ATOM     16  C   ARG A   1       5.586   7.198   5.002  0.00  0.00    +0.224 C 
ATOM     17  O   ARG A   1       5.647   7.150   3.777  0.00  0.00    -0.287 OA
ENDBRANCH  13  16
ENDBRANCH  12  13
ENDBRANCH  11  12
ENDBRANCH  10  11
ENDBRANCH   1  10
TORSDOF 6
REMARK  Name = ../refined-set-2016/1h6h/1h6h_pocket.pdb
REMARK  105 active torsions:
REMARK  status: ('A' for Active; 'I' for Inactive)
REMARK    1  A    between atoms: _1  and  _3
REMARK    2  A    between atoms: _3  and  _4
REMARK    3  A    between atoms: _3  and  _6
REMARK    4  A    between atoms: _6  and  _7
REMARK    5  A    between atoms: _10  and  _12
REMARK    6  A    between atoms: _12  and  _13
REMARK    7  A    between atoms: _12  and  _15
REMARK    8  A    between atoms: _15  and  _16
REMARK    9  A    between atoms: _18  and  _20
REMARK   10  A    between atoms: _20  and  _21
REMARK   11  A    between atoms: _20  and  _23
REMARK   12  A    between atoms: _23  and  _24
REMARK   13  A    between atoms: _29  and  _31
REMARK   14  A    between atoms: _31  and  _32
REMARK   15  A    between atoms: _31  and  _34
REMARK   16  A    between atoms: _34  and  _35
REMARK   17  A    between atoms: _41  and  _43
REMARK   18  A    between atoms: _43  and  _44
REMARK   19  A    between atoms: _43  and  _46
REMARK   20  A    between atoms: _49  and  _51
REMARK   21  A    between atoms: _51  and  _52
REMARK   22  A    between atoms: _51  and  _54
REMARK   23  A    between atoms: _54  and  _55
REMARK   24  A    between atoms: _61  and  _63
REMARK   25  A    between atoms: _63  and  _64
REMARK   26  A    between atoms: _63  and  _66
REMARK   27  A    between atoms: _66  and  _67
REMARK   28  A    between atoms: _67  and  _68
REMARK   29  A    between atoms: _68  and  _69
REMARK   30  A    between atoms: _78  and  _80
REMARK   31  A    between atoms: _80  and  _81
REMARK   32  A    between atoms: _80  and  _83
REMARK   33  A    between atoms: _83  and  _84
REMARK   34  A    between atoms: _84  and  _85
REMARK   35  A    between atoms: _85  and  _86
REMARK   36  A    between atoms: _95  and  _97
REMARK   37  A    between atoms: _97  and  _98
REMARK   38  A    between atoms: _97  and  _100
REMARK   39  A    between atoms: _100  and  _101
REMARK   40  A    between atoms: _106  and  _107
REMARK   41  A    between atoms: _109  and  _111
REMARK   42  A    between atoms: _111  and  _112
REMARK   43  A    between atoms: _111  and  _114
REMARK   44  A    between atoms: _114  and  _115
REMARK   45  A    between atoms: _115  and  _116
REMARK   46  A    between atoms: _116  and  _117
REMARK   47  A    between atoms: _126  and  _128
REMARK   48  A    between atoms: _128  and  _129
REMARK   49  A    between atoms: _128  and  _131
REMARK   50  A    between atoms: _131  and  _132
REMARK   51  A    between atoms: _132  and  _133
REMARK   52  A    between atoms: _138  and  _140
REMARK   53  A    between atoms: _140  and  _141
REMARK   54  A    between atoms: _140  and  _143
REMARK   55  A    between atoms: _143  and  _144
REMARK   56  A    between atoms: _150  and  _152
REMARK   57  A    between atoms: _152  and  _153
REMARK   58  A    between atoms: _152  and  _155
REMARK   59  A    between atoms: _155  and  _156
REMARK   60  A    between atoms: _161  and  _163
REMARK   61  A    between atoms: _163  and  _164
REMARK   62  A    between atoms: _167  and  _169
REMARK   63  A    between atoms: _169  and  _170
REMARK   64  A    between atoms: _169  and  _172
REMARK   65  A    between atoms: _172  and  _173
REMARK   66  A    between atoms: _177  and  _178
REMARK   67  A    between atoms: _183  and  _185
REMARK   68  A    between atoms: _185  and  _186
REMARK   69  A    between atoms: _189  and  _191
REMARK   70  A    between atoms: _191  and  _192
REMARK   71  A    between atoms: _191  and  _194
REMARK   72  A    between atoms: _194  and  _195
REMARK   73  A    between atoms: _195  and  _196
REMARK   74  A    between atoms: _196  and  _197
REMARK   75  A    between atoms: _197  and  _198
REMARK   76  A    between atoms: _202  and  _204
REMARK   77  A    between atoms: _204  and  _205
REMARK   78  A    between atoms: _204  and  _207
REMARK   79  A    between atoms: _210  and  _212
REMARK   80  A    between atoms: _212  and  _213
REMARK   81  A    between atoms: _212  and  _215
REMARK   82  A    between atoms: _215  and  _216
REMARK   83  A    between atoms: _221  and  _222
REMARK   84  A    between atoms: _224  and  _226
REMARK   85  A    between atoms: _226  and  _227
REMARK   86  A    between atoms: _226  and  _229
REMARK   87  A    between atoms: _232  and  _234
REMARK   88  A    between atoms: _234  and  _235
REMARK   89  A    between atoms: _234  and  _237
REMARK   90  A    between atoms: _237  and  _238
REMARK   91  A    between atoms: _238  and  _239
REMARK   92  A    between atoms: _239  and  _240
REMARK   93  A    between atoms: _240  and  _241
REMARK   94  A    between atoms: _245  and  _247
REMARK   95  A    between atoms: _247  and  _248
REMARK   96  A    between atoms: _247  and  _250
REMARK   97  A    between atoms: _250  and  _251
REMARK   98  A    between atoms: _254  and  _256
REMARK   99  A    between atoms: _256  and  _257
REMARK  100  A    between atoms: _260  and  _262
REMARK  101  A    between atoms: _262  and  _263
REMARK  102  A    between atoms: _262  and  _265
REMARK  103  A    between atoms: _265  and  _266
REMARK  104  A    between atoms: _266  and  _267
REMARK  105  A    between atoms: _267  and  _268
REMARK                            x       y       z     vdW  Elec       q    Type
REMARK                         _______ _______ _______ _____ _____    ______ ____
ROOT
ATOM      1  O   HOH     1      11.834  18.985  10.025  0.00  0.00    +0.000 OA
ENDROOT
TORSDOF 0
REMARK  Name = ../refined-set-2016/1h6h/1h6h_pocket.pdb
REMARK  105 active torsions:
REMARK  status: ('A' for Active; 'I' for Inactive)
REMARK    1  A    between atoms: _1  and  _3
REMARK    2  A    between atoms: _3  and  _4
REMARK    3  A    between atoms: _3  and  _6
REMARK    4  A    between atoms: _6  and  _7
REMARK    5  A    between atoms: _10  and  _12
REMARK    6  A    between atoms: _12  and  _13
REMARK    7  A    between atoms: _12  and  _15
REMARK    8  A    between atoms: _15  and  _16
REMARK    9  A    between atoms: _18  and  _20
REMARK   10  A    between atoms: _20  and  _21
REMARK   11  A    between atoms: _20  and  _23
REMARK   12  A    between atoms: _23  and  _24
REMARK   13  A    between atoms: _29  and  _31
REMARK   14  A    between atoms: _31  and  _32
REMARK   15  A    between atoms: _31  and  _34
REMARK   16  A    between atoms: _34  and  _35
REMARK   17  A    between atoms: _41  and  _43
REMARK   18  A    between atoms: _43  and  _44
REMARK   19  A    between atoms: _43  and  _46
REMARK   20  A    between atoms: _49  and  _51
REMARK   21  A    between atoms: _51  and  _52
REMARK   22  A    between atoms: _51  and  _54
REMARK   23  A    between atoms: _54  and  _55
REMARK   24  A    between atoms: _61  and  _63
REMARK   25  A    between atoms: _63  and  _64
REMARK   26  A    between atoms: _63  and  _66
REMARK   27  A    between atoms: _66  and  _67
REMARK   28  A    between atoms: _67  and  _68
REMARK   29  A    between atoms: _68  and  _69
REMARK   30  A    between atoms: _78  and  _80
REMARK   31  A    between atoms: _80  and  _81
REMARK   32  A    between atoms: _80  and  _83
REMARK   33  A    between atoms: _83  and  _84
REMARK   34  A    between atoms: _84  and  _85
REMARK   35  A    between atoms: _85  and  _86
REMARK   36  A    between atoms: _95  and  _97
REMARK   37  A    between atoms: _97  and  _98
REMARK   38  A    between atoms: _97  and  _100
REMARK   39  A    between atoms: _100  and  _101
REMARK   40  A    between atoms: _106  and  _107
REMARK   41  A    between atoms: _109  and  _111
REMARK   42  A    between atoms: _111  and  _112
REMARK   43  A    between atoms: _111  and  _114
REMARK   44  A    between atoms: _114  and  _115
REMARK   45  A    between atoms: _115  and  _116
REMARK   46  A    between atoms: _116  and  _117
REMARK   47  A    between atoms: _126  and  _128
REMARK   48  A    between atoms: _128  and  _129
REMARK   49  A    between atoms: _128  and  _131
REMARK   50  A    between atoms: _131  and  _132
REMARK   51  A    between atoms: _132  and  _133
REMARK   52  A    between atoms: _138  and  _140
REMARK   53  A    between atoms: _140  and  _141
REMARK   54  A    between atoms: _140  and  _143
REMARK   55  A    between atoms: _143  and  _144
REMARK   56  A    between atoms: _150  and  _152
REMARK   57  A    between atoms: _152  and  _153
REMARK   58  A    between atoms: _152  and  _155
REMARK   59  A    between atoms: _155  and  _156
REMARK   60  A    between atoms: _161  and  _163
REMARK   61  A    between atoms: _163  and  _164
REMARK   62  A    between atoms: _167  and  _169
REMARK   63  A    between atoms: _169  and  _170
REMARK   64  A    between atoms: _169  and  _172
REMARK   65  A    between atoms: _172  and  _173
REMARK   66  A    between atoms: _177  and  _178
REMARK   67  A    between atoms: _183  and  _185
REMARK   68  A    between atoms: _185  and  _186
REMARK   69  A    between atoms: _189  and  _191
REMARK   70  A    between atoms: _191  and  _192
REMARK   71  A    between atoms: _191  and  _194
REMARK   72  A    between atoms: _194  and  _195
REMARK   73  A    between atoms: _195  and  _196
REMARK   74  A    between atoms: _196  and  _197
REMARK   75  A    between atoms: _197  and  _198
REMARK   76  A    between atoms: _202  and  _204
REMARK   77  A    between atoms: _204  and  _205
REMARK   78  A    between atoms: _204  and  _207
REMARK   79  A    between atoms: _210  and  _212
REMARK   80  A    between atoms: _212  and  _213
REMARK   81  A    between atoms: _212  and  _215
REMARK   82  A    between atoms: _215  and  _216
REMARK   83  A    between atoms: _221  and  _222
REMARK   84  A    between atoms: _224  and  _226
REMARK   85  A    between atoms: _226  and  _227
REMARK   86  A    between atoms: _226  and  _229
REMARK   87  A    between atoms: _232  and  _234
REMARK   88  A    between atoms: _234  and  _235
REMARK   89  A    between atoms: _234  and  _237
REMARK   90  A    between atoms: _237  and  _238
REMARK   91  A    between atoms: _238  and  _239
REMARK   92  A    between atoms: _239  and  _240
REMARK   93  A    between atoms: _240  and  _241
REMARK   94  A    between atoms: _245  and  _247
REMARK   95  A    between atoms: _247  and  _248
REMARK   96  A    between atoms: _247  and  _250
REMARK   97  A    between atoms: _250  and  _251
REMARK   98  A    between atoms: _254  and  _256
REMARK   99  A    between atoms: _256  and  _257
REMARK  100  A    between atoms: _260  and  _262
REMARK  101  A    between atoms: _262  and  _263
REMARK  102  A    between atoms: _262  and  _265
REMARK  103  A    between atoms: _265  and  _266
REMARK  104  A    between atoms: _266  and  _267
REMARK  105  A    between atoms: _267  and  _268
REMARK                            x       y       z     vdW  Elec       q    Type
REMARK                         _______ _______ _______ _____ _____    ______ ____
ROOT
ATOM      1  O   HOH     1      21.365  11.777   5.963  0.00  0.00    +0.000 OA
ENDROOT
TORSDOF 0
REMARK  Name = ../refined-set-2016/1h6h/1h6h_pocket.pdb
REMARK  105 active torsions:
REMARK  status: ('A' for Active; 'I' for Inactive)
REMARK    1  A    between atoms: _1  and  _3
REMARK    2  A    between atoms: _3  and  _4
REMARK    3  A    between atoms: _3  and  _6
REMARK    4  A    between atoms: _6  and  _7
REMARK    5  A    between atoms: _10  and  _12
REMARK    6  A    between atoms: _12  and  _13
REMARK    7  A    between atoms: _12  and  _15
REMARK    8  A    between atoms: _15  and  _16
REMARK    9  A    between atoms: _18  and  _20
REMARK   10  A    between atoms: _20  and  _21
REMARK   11  A    between atoms: _20  and  _23
REMARK   12  A    between atoms: _23  and  _24
REMARK   13  A    between atoms: _29  and  _31
REMARK   14  A    between atoms: _31  and  _32
REMARK   15  A    between atoms: _31  and  _34
REMARK   16  A    between atoms: _34  and  _35
REMARK   17  A    between atoms: _41  and  _43
REMARK   18  A    between atoms: _43  and  _44
REMARK   19  A    between atoms: _43  and  _46
REMARK   20  A    between atoms: _49  and  _51
REMARK   21  A    between atoms: _51  and  _52
REMARK   22  A    between atoms: _51  and  _54
REMARK   23  A    between atoms: _54  and  _55
REMARK   24  A    between atoms: _61  and  _63
REMARK   25  A    between atoms: _63  and  _64
REMARK   26  A    between atoms: _63  and  _66
REMARK   27  A    between atoms: _66  and  _67
REMARK   28  A    between atoms: _67  and  _68
REMARK   29  A    between atoms: _68  and  _69
REMARK   30  A    between atoms: _78  and  _80
REMARK   31  A    between atoms: _80  and  _81
REMARK   32  A    between atoms: _80  and  _83
REMARK   33  A    between atoms: _83  and  _84
REMARK   34  A    between atoms: _84  and  _85
REMARK   35  A    between atoms: _85  and  _86
REMARK   36  A    between atoms: _95  and  _97
REMARK   37  A    between atoms: _97  and  _98
REMARK   38  A    between atoms: _97  and  _100
REMARK   39  A    between atoms: _100  and  _101
REMARK   40  A    between atoms: _106  and  _107
REMARK   41  A    between atoms: _109  and  _111
REMARK   42  A    between atoms: _111  and  _112
REMARK   43  A    between atoms: _111  and  _114
REMARK   44  A    between atoms: _114  and  _115
REMARK   45  A    between atoms: _115  and  _116
REMARK   46  A    between atoms: _116  and  _117
REMARK   47  A    between atoms: _126  and  _128
REMARK   48  A    between atoms: _128  and  _129
REMARK   49  A    between atoms: _128  and  _131
REMARK   50  A    between atoms: _131  and  _132
REMARK   51  A    between atoms: _132  and  _133
REMARK   52  A    between atoms: _138  and  _140
REMARK   53  A    between atoms: _140  and  _141
REMARK   54  A    between atoms: _140  and  _143
REMARK   55  A    between atoms: _143  and  _144
REMARK   56  A    between atoms: _150  and  _152
REMARK   57  A    between atoms: _152  and  _153
REMARK   58  A    between atoms: _152  and  _155
REMARK   59  A    between atoms: _155  and  _156
REMARK   60  A    between atoms: _161  and  _163
REMARK   61  A    between atoms: _163  and  _164
REMARK   62  A    between atoms: _167  and  _169
REMARK   63  A    between atoms: _169  and  _170
REMARK   64  A    between atoms: _169  and  _172
REMARK   65  A    between atoms: _172  and  _173
REMARK   66  A    between atoms: _177  and  _178
REMARK   67  A    between atoms: _183  and  _185
REMARK   68  A    between atoms: _185  and  _186
REMARK   69  A    between atoms: _189  and  _191
REMARK   70  A    between atoms: _191  and  _192
REMARK   71  A    between atoms: _191  and  _194
REMARK   72  A    between atoms: _194  and  _195
REMARK   73  A    between atoms: _195  and  _196
REMARK   74  A    between atoms: _196  and  _197
REMARK   75  A    between atoms: _197  and  _198
REMARK   76  A    between atoms: _202  and  _204
REMARK   77  A    between atoms: _204  and  _205
REMARK   78  A    between atoms: _204  and  _207
REMARK   79  A    between atoms: _210  and  _212
REMARK   80  A    between atoms: _212  and  _213
REMARK   81  A    between atoms: _212  and  _215
REMARK   82  A    between atoms: _215  and  _216
REMARK   83  A    between atoms: _221  and  _222
REMARK   84  A    between atoms: _224  and  _226
REMARK   85  A    between atoms: _226  and  _227
REMARK   86  A    between atoms: _226  and  _229
REMARK   87  A    between atoms: _232  and  _234
REMARK   88  A    between atoms: _234  and  _235
REMARK   89  A    between atoms: _234  and  _237
REMARK   90  A    between atoms: _237  and  _238
REMARK   91  A    between atoms: _238  and  _239
REMARK   92  A    between atoms: _239  and  _240
REMARK   93  A    between atoms: _240  and  _241
REMARK   94  A    between atoms: _245  and  _247
REMARK   95  A    between atoms: _247  and  _248
REMARK   96  A    between atoms: _247  and  _250
REMARK   97  A    between atoms: _250  and  _251
REMARK   98  A    between atoms: _254  and  _256
REMARK   99  A    between atoms: _256  and  _257
REMARK  100  A    between atoms: _260  and  _262
REMARK  101  A    between atoms: _262  and  _263
REMARK  102  A    between atoms: _262  and  _265
REMARK  103  A    between atoms: _265  and  _266
REMARK  104  A    between atoms: _266  and  _267
REMARK  105  A    between atoms: _267  and  _268
REMARK                            x       y       z     vdW  Elec       q    Type
REMARK                         _______ _______ _______ _____ _____    ______ ____
ROOT
ATOM      1  O   HOH     1       6.283  30.953   9.589  0.00  0.00    +0.000 OA
ENDROOT
TORSDOF 0
REMARK  Name = ../refined-set-2016/1h6h/1h6h_pocket.pdb
REMARK  105 active torsions:
REMARK  status: ('A' for Active; 'I' for Inactive)
REMARK    1  A    between atoms: _1  and  _3
REMARK    2  A    between atoms: _3  and  _4
REMARK    3  A    between atoms: _3  and  _6
REMARK    4  A    between atoms: _6  and  _7
REMARK    5  A    between atoms: _10  and  _12
REMARK    6  A    between atoms: _12  and  _13
REMARK    7  A    between atoms: _12  and  _15
REMARK    8  A    between atoms: _15  and  _16
REMARK    9  A    between atoms: _18  and  _20
REMARK   10  A    between atoms: _20  and  _21
REMARK   11  A    between atoms: _20  and  _23
REMARK   12  A    between atoms: _23  and  _24
REMARK   13  A    between atoms: _29  and  _31
REMARK   14  A    between atoms: _31  and  _32
REMARK   15  A    between atoms: _31  and  _34
REMARK   16  A    between atoms: _34  and  _35
REMARK   17  A    between atoms: _41  and  _43
REMARK   18  A    between atoms: _43  and  _44
REMARK   19  A    between atoms: _43  and  _46
REMARK   20  A    between atoms: _49  and  _51
REMARK   21  A    between atoms: _51  and  _52
REMARK   22  A    between atoms: _51  and  _54
REMARK   23  A    between atoms: _54  and  _55
REMARK   24  A    between atoms: _61  and  _63
REMARK   25  A    between atoms: _63  and  _64
REMARK   26  A    between atoms: _63  and  _66
REMARK   27  A    between atoms: _66  and  _67
REMARK   28  A    between atoms: _67  and  _68
REMARK   29  A    between atoms: _68  and  _69
REMARK   30  A    between atoms: _78  and  _80
REMARK   31  A    between atoms: _80  and  _81
REMARK   32  A    between atoms: _80  and  _83
REMARK   33  A    between atoms: _83  and  _84
REMARK   34  A    between atoms: _84  and  _85
REMARK   35  A    between atoms: _85  and  _86
REMARK   36  A    between atoms: _95  and  _97
REMARK   37  A    between atoms: _97  and  _98
REMARK   38  A    between atoms: _97  and  _100
REMARK   39  A    between atoms: _100  and  _101
REMARK   40  A    between atoms: _106  and  _107
REMARK   41  A    between atoms: _109  and  _111
REMARK   42  A    between atoms: _111  and  _112
REMARK   43  A    between atoms: _111  and  _114
REMARK   44  A    between atoms: _114  and  _115
REMARK   45  A    between atoms: _115  and  _116
REMARK   46  A    between atoms: _116  and  _117
REMARK   47  A    between atoms: _126  and  _128
REMARK   48  A    between atoms: _128  and  _129
REMARK   49  A    between atoms: _128  and  _131
REMARK   50  A    between atoms: _131  and  _132
REMARK   51  A    between atoms: _132  and  _133
REMARK   52  A    between atoms: _138  and  _140
REMARK   53  A    between atoms: _140  and  _141
REMARK   54  A    between atoms: _140  and  _143
REMARK   55  A    between atoms: _143  and  _144
REMARK   56  A    between atoms: _150  and  _152
REMARK   57  A    between atoms: _152  and  _153
REMARK   58  A    between atoms: _152  and  _155
REMARK   59  A    between atoms: _155  and  _156
REMARK   60  A    between atoms: _161  and  _163
REMARK   61  A    between atoms: _163  and  _164
REMARK   62  A    between atoms: _167  and  _169
REMARK   63  A    between atoms: _169  and  _170
REMARK   64  A    between atoms: _169  and  _172
REMARK   65  A    between atoms: _172  and  _173
REMARK   66  A    between atoms: _177  and  _178
REMARK   67  A    between atoms: _183  and  _185
REMARK   68  A    between atoms: _185  and  _186
REMARK   69  A    between atoms: _189  and  _191
REMARK   70  A    between atoms: _191  and  _192
REMARK   71  A    between atoms: _191  and  _194
REMARK   72  A    between atoms: _194  and  _195
REMARK   73  A    between atoms: _195  and  _196
REMARK   74  A    between atoms: _196  and  _197
REMARK   75  A    between atoms: _197  and  _198
REMARK   76  A    between atoms: _202  and  _204
REMARK   77  A    between atoms: _204  and  _205
REMARK   78  A    between atoms: _204  and  _207
REMARK   79  A    between atoms: _210  and  _212
REMARK   80  A    between atoms: _212  and  _213
REMARK   81  A    between atoms: _212  and  _215
REMARK   82  A    between atoms: _215  and  _216
REMARK   83  A    between atoms: _221  and  _222
REMARK   84  A    between atoms: _224  and  _226
REMARK   85  A    between atoms: _226  and  _227
REMARK   86  A    between atoms: _226  and  _229
REMARK   87  A    between atoms: _232  and  _234
REMARK   88  A    between atoms: _234  and  _235
REMARK   89  A    between atoms: _234  and  _237
REMARK   90  A    between atoms: _237  and  _238
REMARK   91  A    between atoms: _238  and  _239
REMARK   92  A    between atoms: _239  and  _240
REMARK   93  A    between atoms: _240  and  _241
REMARK   94  A    between atoms: _245  and  _247
REMARK   95  A    between atoms: _247  and  _248
REMARK   96  A    between atoms: _247  and  _250
REMARK   97  A    between atoms: _250  and  _251
REMARK   98  A    between atoms: _254  and  _256
REMARK   99  A    between atoms: _256  and  _257
REMARK  100  A    between atoms: _260  and  _262
REMARK  101  A    between atoms: _262  and  _263
REMARK  102  A    between atoms: _262  and  _265
REMARK  103  A    between atoms: _265  and  _266
REMARK  104  A    between atoms: _266  and  _267
REMARK  105  A    between atoms: _267  and  _268
REMARK                            x       y       z     vdW  Elec       q    Type
REMARK                         _______ _______ _______ _____ _____    ______ ____
ROOT
ATOM      1  O   HOH     1      18.250  18.381   9.514  0.00  0.00    +0.000 OA
ENDROOT
TORSDOF 0
REMARK  Name = ../refined-set-2016/1h6h/1h6h_pocket.pdb
REMARK  105 active torsions:
REMARK  status: ('A' for Active; 'I' for Inactive)
REMARK    1  A    between atoms: _1  and  _3
REMARK    2  A    between atoms: _3  and  _4
REMARK    3  A    between atoms: _3  and  _6
REMARK    4  A    between atoms: _6  and  _7
REMARK    5  A    between atoms: _10  and  _12
REMARK    6  A    between atoms: _12  and  _13
REMARK    7  A    between atoms: _12  and  _15
REMARK    8  A    between atoms: _15  and  _16
REMARK    9  A    between atoms: _18  and  _20
REMARK   10  A    between atoms: _20  and  _21
REMARK   11  A    between atoms: _20  and  _23
REMARK   12  A    between atoms: _23  and  _24
REMARK   13  A    between atoms: _29  and  _31
REMARK   14  A    between atoms: _31  and  _32
REMARK   15  A    between atoms: _31  and  _34
REMARK   16  A    between atoms: _34  and  _35
REMARK   17  A    between atoms: _41  and  _43
REMARK   18  A    between atoms: _43  and  _44
REMARK   19  A    between atoms: _43  and  _46
REMARK   20  A    between atoms: _49  and  _51
REMARK   21  A    between atoms: _51  and  _52
REMARK   22  A    between atoms: _51  and  _54
REMARK   23  A    between atoms: _54  and  _55
REMARK   24  A    between atoms: _61  and  _63
REMARK   25  A    between atoms: _63  and  _64
REMARK   26  A    between atoms: _63  and  _66
REMARK   27  A    between atoms: _66  and  _67
REMARK   28  A    between atoms: _67  and  _68
REMARK   29  A    between atoms: _68  and  _69
REMARK   30  A    between atoms: _78  and  _80
REMARK   31  A    between atoms: _80  and  _81
REMARK   32  A    between atoms: _80  and  _83
REMARK   33  A    between atoms: _83  and  _84
REMARK   34  A    between atoms: _84  and  _85
REMARK   35  A    between atoms: _85  and  _86
REMARK   36  A    between atoms: _95  and  _97
REMARK   37  A    between atoms: _97  and  _98
REMARK   38  A    between atoms: _97  and  _100
REMARK   39  A    between atoms: _100  and  _101
REMARK   40  A    between atoms: _106  and  _107
REMARK   41  A    between atoms: _109  and  _111
REMARK   42  A    between atoms: _111  and  _112
REMARK   43  A    between atoms: _111  and  _114
REMARK   44  A    between atoms: _114  and  _115
REMARK   45  A    between atoms: _115  and  _116
REMARK   46  A    between atoms: _116  and  _117
REMARK   47  A    between atoms: _126  and  _128
REMARK   48  A    between atoms: _128  and  _129
REMARK   49  A    between atoms: _128  and  _131
REMARK   50  A    between atoms: _131  and  _132
REMARK   51  A    between atoms: _132  and  _133
REMARK   52  A    between atoms: _138  and  _140
REMARK   53  A    between atoms: _140  and  _141
REMARK   54  A    between atoms: _140  and  _143
REMARK   55  A    between atoms: _143  and  _144
REMARK   56  A    between atoms: _150  and  _152
REMARK   57  A    between atoms: _152  and  _153
REMARK   58  A    between atoms: _152  and  _155
REMARK   59  A    between atoms: _155  and  _156
REMARK   60  A    between atoms: _161  and  _163
REMARK   61  A    between atoms: _163  and  _164
REMARK   62  A    between atoms: _167  and  _169
REMARK   63  A    between atoms: _169  and  _170
REMARK   64  A    between atoms: _169  and  _172
REMARK   65  A    between atoms: _172  and  _173
REMARK   66  A    between atoms: _177  and  _178
REMARK   67  A    between atoms: _183  and  _185
REMARK   68  A    between atoms: _185  and  _186
REMARK   69  A    between atoms: _189  and  _191
REMARK   70  A    between atoms: _191  and  _192
REMARK   71  A    between atoms: _191  and  _194
REMARK   72  A    between atoms: _194  and  _195
REMARK   73  A    between atoms: _195  and  _196
REMARK   74  A    between atoms: _196  and  _197
REMARK   75  A    between atoms: _197  and  _198
REMARK   76  A    between atoms: _202  and  _204
REMARK   77  A    between atoms: _204  and  _205
REMARK   78  A    between atoms: _204  and  _207
REMARK   79  A    between atoms: _210  and  _212
REMARK   80  A    between atoms: _212  and  _213
REMARK   81  A    between atoms: _212  and  _215
REMARK   82  A    between atoms: _215  and  _216
REMARK   83  A    between atoms: _221  and  _222
REMARK   84  A    between atoms: _224  and  _226
REMARK   85  A    between atoms: _226  and  _227
REMARK   86  A    between atoms: _226  and  _229
REMARK   87  A    between atoms: _232  and  _234
REMARK   88  A    between atoms: _234  and  _235
REMARK   89  A    between atoms: _234  and  _237
REMARK   90  A    between atoms: _237  and  _238
REMARK   91  A    between atoms: _238  and  _239
REMARK   92  A    between atoms: _239  and  _240
REMARK   93  A    between atoms: _240  and  _241
REMARK   94  A    between atoms: _245  and  _247
REMARK   95  A    between atoms: _247  and  _248
REMARK   96  A    between atoms: _247  and  _250
REMARK   97  A    between atoms: _250  and  _251
REMARK   98  A    between atoms: _254  and  _256
REMARK   99  A    between atoms: _256  and  _257
REMARK  100  A    between atoms: _260  and  _262
REMARK  101  A    between atoms: _262  and  _263
REMARK  102  A    between atoms: _262  and  _265
REMARK  103  A    between atoms: _265  and  _266
REMARK  104  A    between atoms: _266  and  _267
REMARK  105  A    between atoms: _267  and  _268
REMARK                            x       y       z     vdW  Elec       q    Type
REMARK                         _______ _______ _______ _____ _____    ______ ____
ROOT
ATOM      1  O   HOH     1      21.208  17.622   8.085  0.00  0.00    +0.000 OA
ENDROOT
TORSDOF 0
REMARK  Name = ../refined-set-2016/1h6h/1h6h_pocket.pdb
REMARK  105 active torsions:
REMARK  status: ('A' for Active; 'I' for Inactive)
REMARK    1  A    between atoms: _1  and  _3
REMARK    2  A    between atoms: _3  and  _4
REMARK    3  A    between atoms: _3  and  _6
REMARK    4  A    between atoms: _6  and  _7
REMARK    5  A    between atoms: _10  and  _12
REMARK    6  A    between atoms: _12  and  _13
REMARK    7  A    between atoms: _12  and  _15
REMARK    8  A    between atoms: _15  and  _16
REMARK    9  A    between atoms: _18  and  _20
REMARK   10  A    between atoms: _20  and  _21
REMARK   11  A    between atoms: _20  and  _23
REMARK   12  A    between atoms: _23  and  _24
REMARK   13  A    between atoms: _29  and  _31
REMARK   14  A    between atoms: _31  and  _32
REMARK   15  A    between atoms: _31  and  _34
REMARK   16  A    between atoms: _34  and  _35
REMARK   17  A    between atoms: _41  and  _43
REMARK   18  A    between atoms: _43  and  _44
REMARK   19  A    between atoms: _43  and  _46
REMARK   20  A    between atoms: _49  and  _51
REMARK   21  A    between atoms: _51  and  _52
REMARK   22  A    between atoms: _51  and  _54
REMARK   23  A    between atoms: _54  and  _55
REMARK   24  A    between atoms: _61  and  _63
REMARK   25  A    between atoms: _63  and  _64
REMARK   26  A    between atoms: _63  and  _66
REMARK   27  A    between atoms: _66  and  _67
REMARK   28  A    between atoms: _67  and  _68
REMARK   29  A    between atoms: _68  and  _69
REMARK   30  A    between atoms: _78  and  _80
REMARK   31  A    between atoms: _80  and  _81
REMARK   32  A    between atoms: _80  and  _83
REMARK   33  A    between atoms: _83  and  _84
REMARK   34  A    between atoms: _84  and  _85
REMARK   35  A    between atoms: _85  and  _86
REMARK   36  A    between atoms: _95  and  _97
REMARK   37  A    between atoms: _97  and  _98
REMARK   38  A    between atoms: _97  and  _100
REMARK   39  A    between atoms: _100  and  _101
REMARK   40  A    between atoms: _106  and  _107
REMARK   41  A    between atoms: _109  and  _111
REMARK   42  A    between atoms: _111  and  _112
REMARK   43  A    between atoms: _111  and  _114
REMARK   44  A    between atoms: _114  and  _115
REMARK   45  A    between atoms: _115  and  _116
REMARK   46  A    between atoms: _116  and  _117
REMARK   47  A    between atoms: _126  and  _128
REMARK   48  A    between atoms: _128  and  _129
REMARK   49  A    between atoms: _128  and  _131
REMARK   50  A    between atoms: _131  and  _132
REMARK   51  A    between atoms: _132  and  _133
REMARK   52  A    between atoms: _138  and  _140
REMARK   53  A    between atoms: _140  and  _141
REMARK   54  A    between atoms: _140  and  _143
REMARK   55  A    between atoms: _143  and  _144
REMARK   56  A    between atoms: _150  and  _152
REMARK   57  A    between atoms: _152  and  _153
REMARK   58  A    between atoms: _152  and  _155
REMARK   59  A    between atoms: _155  and  _156
REMARK   60  A    between atoms: _161  and  _163
REMARK   61  A    between atoms: _163  and  _164
REMARK   62  A    between atoms: _167  and  _169
REMARK   63  A    between atoms: _169  and  _170
REMARK   64  A    between atoms: _169  and  _172
REMARK   65  A    between atoms: _172  and  _173
REMARK   66  A    between atoms: _177  and  _178
REMARK   67  A    between atoms: _183  and  _185
REMARK   68  A    between atoms: _185  and  _186
REMARK   69  A    between atoms: _189  and  _191
REMARK   70  A    between atoms: _191  and  _192
REMARK   71  A    between atoms: _191  and  _194
REMARK   72  A    between atoms: _194  and  _195
REMARK   73  A    between atoms: _195  and  _196
REMARK   74  A    between atoms: _196  and  _197
REMARK   75  A    between atoms: _197  and  _198
REMARK   76  A    between atoms: _202  and  _204
REMARK   77  A    between atoms: _204  and  _205
REMARK   78  A    between atoms: _204  and  _207
REMARK   79  A    between atoms: _210  and  _212
REMARK   80  A    between atoms: _212  and  _213
REMARK   81  A    between atoms: _212  and  _215
REMARK   82  A    between atoms: _215  and  _216
REMARK   83  A    between atoms: _221  and  _222
REMARK   84  A    between atoms: _224  and  _226
REMARK   85  A    between atoms: _226  and  _227
REMARK   86  A    between atoms: _226  and  _229
REMARK   87  A    between atoms: _232  and  _234
REMARK   88  A    between atoms: _234  and  _235
REMARK   89  A    between atoms: _234  and  _237
REMARK   90  A    between atoms: _237  and  _238
REMARK   91  A    between atoms: _238  and  _239
REMARK   92  A    between atoms: _239  and  _240
REMARK   93  A    between atoms: _240  and  _241
REMARK   94  A    between atoms: _245  and  _247
REMARK   95  A    between atoms: _247  and  _248
REMARK   96  A    between atoms: _247  and  _250
REMARK   97  A    between atoms: _250  and  _251
REMARK   98  A    between atoms: _254  and  _256
REMARK   99  A    between atoms: _256  and  _257
REMARK  100  A    between atoms: _260  and  _262
REMARK  101  A    between atoms: _262  and  _263
REMARK  102  A    between atoms: _262  and  _265
REMARK  103  A    between atoms: _265  and  _266
REMARK  104  A    between atoms: _266  and  _267
REMARK  105  A    between atoms: _267  and  _268
REMARK                            x       y       z     vdW  Elec       q    Type
REMARK                         _______ _______ _______ _____ _____    ______ ____
ROOT
ATOM      1  O   HOH     1      19.974  11.262   3.172  0.00  0.00    +0.000 OA
ENDROOT
TORSDOF 0
REMARK  Name = ../refined-set-2016/1h6h/1h6h_pocket.pdb
REMARK  105 active torsions:
REMARK  status: ('A' for Active; 'I' for Inactive)
REMARK    1  A    between atoms: _1  and  _3
REMARK    2  A    between atoms: _3  and  _4
REMARK    3  A    between atoms: _3  and  _6
REMARK    4  A    between atoms: _6  and  _7
REMARK    5  A    between atoms: _10  and  _12
REMARK    6  A    between atoms: _12  and  _13
REMARK    7  A    between atoms: _12  and  _15
REMARK    8  A    between atoms: _15  and  _16
REMARK    9  A    between atoms: _18  and  _20
REMARK   10  A    between atoms: _20  and  _21
REMARK   11  A    between atoms: _20  and  _23
REMARK   12  A    between atoms: _23  and  _24
REMARK   13  A    between atoms: _29  and  _31
REMARK   14  A    between atoms: _31  and  _32
REMARK   15  A    between atoms: _31  and  _34
REMARK   16  A    between atoms: _34  and  _35
REMARK   17  A    between atoms: _41  and  _43
REMARK   18  A    between atoms: _43  and  _44
REMARK   19  A    between atoms: _43  and  _46
REMARK   20  A    between atoms: _49  and  _51
REMARK   21  A    between atoms: _51  and  _52
REMARK   22  A    between atoms: _51  and  _54
REMARK   23  A    between atoms: _54  and  _55
REMARK   24  A    between atoms: _61  and  _63
REMARK   25  A    between atoms: _63  and  _64
REMARK   26  A    between atoms: _63  and  _66
REMARK   27  A    between atoms: _66  and  _67
REMARK   28  A    between atoms: _67  and  _68
REMARK   29  A    between atoms: _68  and  _69
REMARK   30  A    between atoms: _78  and  _80
REMARK   31  A    between atoms: _80  and  _81
REMARK   32  A    between atoms: _80  and  _83
REMARK   33  A    between atoms: _83  and  _84
REMARK   34  A    between atoms: _84  and  _85
REMARK   35  A    between atoms: _85  and  _86
REMARK   36  A    between atoms: _95  and  _97
REMARK   37  A    between atoms: _97  and  _98
REMARK   38  A    between atoms: _97  and  _100
REMARK   39  A    between atoms: _100  and  _101
REMARK   40  A    between atoms: _106  and  _107
REMARK   41  A    between atoms: _109  and  _111
REMARK   42  A    between atoms: _111  and  _112
REMARK   43  A    between atoms: _111  and  _114
REMARK   44  A    between atoms: _114  and  _115
REMARK   45  A    between atoms: _115  and  _116
REMARK   46  A    between atoms: _116  and  _117
REMARK   47  A    between atoms: _126  and  _128
REMARK   48  A    between atoms: _128  and  _129
REMARK   49  A    between atoms: _128  and  _131
REMARK   50  A    between atoms: _131  and  _132
REMARK   51  A    between atoms: _132  and  _133
REMARK   52  A    between atoms: _138  and  _140
REMARK   53  A    between atoms: _140  and  _141
REMARK   54  A    between atoms: _140  and  _143
REMARK   55  A    between atoms: _143  and  _144
REMARK   56  A    between atoms: _150  and  _152
REMARK   57  A    between atoms: _152  and  _153
REMARK   58  A    between atoms: _152  and  _155
REMARK   59  A    between atoms: _155  and  _156
REMARK   60  A    between atoms: _161  and  _163
REMARK   61  A    between atoms: _163  and  _164
REMARK   62  A    between atoms: _167  and  _169
REMARK   63  A    between atoms: _169  and  _170
REMARK   64  A    between atoms: _169  and  _172
REMARK   65  A    between atoms: _172  and  _173
REMARK   66  A    between atoms: _177  and  _178
REMARK   67  A    between atoms: _183  and  _185
REMARK   68  A    between atoms: _185  and  _186
REMARK   69  A    between atoms: _189  and  _191
REMARK   70  A    between atoms: _191  and  _192
REMARK   71  A    between atoms: _191  and  _194
REMARK   72  A    between atoms: _194  and  _195
REMARK   73  A    between atoms: _195  and  _196
REMARK   74  A    between atoms: _196  and  _197
REMARK   75  A    between atoms: _197  and  _198
REMARK   76  A    between atoms: _202  and  _204
REMARK   77  A    between atoms: _204  and  _205
REMARK   78  A    between atoms: _204  and  _207
REMARK   79  A    between atoms: _210  and  _212
REMARK   80  A    between atoms: _212  and  _213
REMARK   81  A    between atoms: _212  and  _215
REMARK   82  A    between atoms: _215  and  _216
REMARK   83  A    between atoms: _221  and  _222
REMARK   84  A    between atoms: _224  and  _226
REMARK   85  A    between atoms: _226  and  _227
REMARK   86  A    between atoms: _226  and  _229
REMARK   87  A    between atoms: _232  and  _234
REMARK   88  A    between atoms: _234  and  _235
REMARK   89  A    between atoms: _234  and  _237
REMARK   90  A    between atoms: _237  and  _238
REMARK   91  A    between atoms: _238  and  _239
REMARK   92  A    between atoms: _239  and  _240
REMARK   93  A    between atoms: _240  and  _241
REMARK   94  A    between atoms: _245  and  _247
REMARK   95  A    between atoms: _247  and  _248
REMARK   96  A    between atoms: _247  and  _250
REMARK   97  A    between atoms: _250  and  _251
REMARK   98  A    between atoms: _254  and  _256
REMARK   99  A    between atoms: _256  and  _257
REMARK  100  A    between atoms: _260  and  _262
REMARK  101  A    between atoms: _262  and  _263
REMARK  102  A    between atoms: _262  and  _265
REMARK  103  A    between atoms: _265  and  _266
REMARK  104  A    between atoms: _266  and  _267
REMARK  105  A    between atoms: _267  and  _268
REMARK                            x       y       z     vdW  Elec       q    Type
REMARK                         _______ _______ _______ _____ _____    ______ ____
ROOT
ATOM      1  O   HOH     1       5.671  22.544  -0.976  0.00  0.00    +0.000 OA
ENDROOT
TORSDOF 0
REMARK  Name = ../refined-set-2016/1h6h/1h6h_pocket.pdb
REMARK  105 active torsions:
REMARK  status: ('A' for Active; 'I' for Inactive)
REMARK    1  A    between atoms: _1  and  _3
REMARK    2  A    between atoms: _3  and  _4
REMARK    3  A    between atoms: _3  and  _6
REMARK    4  A    between atoms: _6  and  _7
REMARK    5  A    between atoms: _10  and  _12
REMARK    6  A    between atoms: _12  and  _13
REMARK    7  A    between atoms: _12  and  _15
REMARK    8  A    between atoms: _15  and  _16
REMARK    9  A    between atoms: _18  and  _20
REMARK   10  A    between atoms: _20  and  _21
REMARK   11  A    between atoms: _20  and  _23
REMARK   12  A    between atoms: _23  and  _24
REMARK   13  A    between atoms: _29  and  _31
REMARK   14  A    between atoms: _31  and  _32
REMARK   15  A    between atoms: _31  and  _34
REMARK   16  A    between atoms: _34  and  _35
REMARK   17  A    between atoms: _41  and  _43
REMARK   18  A    between atoms: _43  and  _44
REMARK   19  A    between atoms: _43  and  _46
REMARK   20  A    between atoms: _49  and  _51
REMARK   21  A    between atoms: _51  and  _52
REMARK   22  A    between atoms: _51  and  _54
REMARK   23  A    between atoms: _54  and  _55
REMARK   24  A    between atoms: _61  and  _63
REMARK   25  A    between atoms: _63  and  _64
REMARK   26  A    between atoms: _63  and  _66
REMARK   27  A    between atoms: _66  and  _67
REMARK   28  A    between atoms: _67  and  _68
REMARK   29  A    between atoms: _68  and  _69
REMARK   30  A    between atoms: _78  and  _80
REMARK   31  A    between atoms: _80  and  _81
REMARK   32  A    between atoms: _80  and  _83
REMARK   33  A    between atoms: _83  and  _84
REMARK   34  A    between atoms: _84  and  _85
REMARK   35  A    between atoms: _85  and  _86
REMARK   36  A    between atoms: _95  and  _97
REMARK   37  A    between atoms: _97  and  _98
REMARK   38  A    between atoms: _97  and  _100
REMARK   39  A    between atoms: _100  and  _101
REMARK   40  A    between atoms: _106  and  _107
REMARK   41  A    between atoms: _109  and  _111
REMARK   42  A    between atoms: _111  and  _112
REMARK   43  A    between atoms: _111  and  _114
REMARK   44  A    between atoms: _114  and  _115
REMARK   45  A    between atoms: _115  and  _116
REMARK   46  A    between atoms: _116  and  _117
REMARK   47  A    between atoms: _126  and  _128
REMARK   48  A    between atoms: _128  and  _129
REMARK   49  A    between atoms: _128  and  _131
REMARK   50  A    between atoms: _131  and  _132
REMARK   51  A    between atoms: _132  and  _133
REMARK   52  A    between atoms: _138  and  _140
REMARK   53  A    between atoms: _140  and  _141
REMARK   54  A    between atoms: _140  and  _143
REMARK   55  A    between atoms: _143  and  _144
REMARK   56  A    between atoms: _150  and  _152
REMARK   57  A    between atoms: _152  and  _153
REMARK   58  A    between atoms: _152  and  _155
REMARK   59  A    between atoms: _155  and  _156
REMARK   60  A    between atoms: _161  and  _163
REMARK   61  A    between atoms: _163  and  _164
REMARK   62  A    between atoms: _167  and  _169
REMARK   63  A    between atoms: _169  and  _170
REMARK   64  A    between atoms: _169  and  _172
REMARK   65  A    between atoms: _172  and  _173
REMARK   66  A    between atoms: _177  and  _178
REMARK   67  A    between atoms: _183  and  _185
REMARK   68  A    between atoms: _185  and  _186
REMARK   69  A    between atoms: _189  and  _191
REMARK   70  A    between atoms: _191  and  _192
REMARK   71  A    between atoms: _191  and  _194
REMARK   72  A    between atoms: _194  and  _195
REMARK   73  A    between atoms: _195  and  _196
REMARK   74  A    between atoms: _196  and  _197
REMARK   75  A    between atoms: _197  and  _198
REMARK   76  A    between atoms: _202  and  _204
REMARK   77  A    between atoms: _204  and  _205
REMARK   78  A    between atoms: _204  and  _207
REMARK   79  A    between atoms: _210  and  _212
REMARK   80  A    between atoms: _212  and  _213
REMARK   81  A    between atoms: _212  and  _215
REMARK   82  A    between atoms: _215  and  _216
REMARK   83  A    between atoms: _221  and  _222
REMARK   84  A    between atoms: _224  and  _226
REMARK   85  A    between atoms: _226  and  _227
REMARK   86  A    between atoms: _226  and  _229
REMARK   87  A    between atoms: _232  and  _234
REMARK   88  A    between atoms: _234  and  _235
REMARK   89  A    between atoms: _234  and  _237
REMARK   90  A    between atoms: _237  and  _238
REMARK   91  A    between atoms: _238  and  _239
REMARK   92  A    between atoms: _239  and  _240
REMARK   93  A    between atoms: _240  and  _241
REMARK   94  A    between atoms: _245  and  _247
REMARK   95  A    between atoms: _247  and  _248
REMARK   96  A    between atoms: _247  and  _250
REMARK   97  A    between atoms: _250  and  _251
REMARK   98  A    between atoms: _254  and  _256
REMARK   99  A    between atoms: _256  and  _257
REMARK  100  A    between atoms: _260  and  _262
REMARK  101  A    between atoms: _262  and  _263
REMARK  102  A    between atoms: _262  and  _265
REMARK  103  A    between atoms: _265  and  _266
REMARK  104  A    between atoms: _266  and  _267
REMARK  105  A    between atoms: _267  and  _268
REMARK                            x       y       z     vdW  Elec       q    Type
REMARK                         _______ _______ _______ _____ _____    ______ ____
ROOT
ATOM      1  O   HOH     1      12.281  21.156  -2.376  0.00  0.00    +0.000 OA
ENDROOT
TORSDOF 0
REMARK  Name = ../refined-set-2016/1h6h/1h6h_pocket.pdb
REMARK  105 active torsions:
REMARK  status: ('A' for Active; 'I' for Inactive)
REMARK    1  A    between atoms: _1  and  _3
REMARK    2  A    between atoms: _3  and  _4
REMARK    3  A    between atoms: _3  and  _6
REMARK    4  A    between atoms: _6  and  _7
REMARK    5  A    between atoms: _10  and  _12
REMARK    6  A    between atoms: _12  and  _13
REMARK    7  A    between atoms: _12  and  _15
REMARK    8  A    between atoms: _15  and  _16
REMARK    9  A    between atoms: _18  and  _20
REMARK   10  A    between atoms: _20  and  _21
REMARK   11  A    between atoms: _20  and  _23
REMARK   12  A    between atoms: _23  and  _24
REMARK   13  A    between atoms: _29  and  _31
REMARK   14  A    between atoms: _31  and  _32
REMARK   15  A    between atoms: _31  and  _34
REMARK   16  A    between atoms: _34  and  _35
REMARK   17  A    between atoms: _41  and  _43
REMARK   18  A    between atoms: _43  and  _44
REMARK   19  A    between atoms: _43  and  _46
REMARK   20  A    between atoms: _49  and  _51
REMARK   21  A    between atoms: _51  and  _52
REMARK   22  A    between atoms: _51  and  _54
REMARK   23  A    between atoms: _54  and  _55
REMARK   24  A    between atoms: _61  and  _63
REMARK   25  A    between atoms: _63  and  _64
REMARK   26  A    between atoms: _63  and  _66
REMARK   27  A    between atoms: _66  and  _67
REMARK   28  A    between atoms: _67  and  _68
REMARK   29  A    between atoms: _68  and  _69
REMARK   30  A    between atoms: _78  and  _80
REMARK   31  A    between atoms: _80  and  _81
REMARK   32  A    between atoms: _80  and  _83
REMARK   33  A    between atoms: _83  and  _84
REMARK   34  A    between atoms: _84  and  _85
REMARK   35  A    between atoms: _85  and  _86
REMARK   36  A    between atoms: _95  and  _97
REMARK   37  A    between atoms: _97  and  _98
REMARK   38  A    between atoms: _97  and  _100
REMARK   39  A    between atoms: _100  and  _101
REMARK   40  A    between atoms: _106  and  _107
REMARK   41  A    between atoms: _109  and  _111
REMARK   42  A    between atoms: _111  and  _112
REMARK   43  A    between atoms: _111  and  _114
REMARK   44  A    between atoms: _114  and  _115
REMARK   45  A    between atoms: _115  and  _116
REMARK   46  A    between atoms: _116  and  _117
REMARK   47  A    between atoms: _126  and  _128
REMARK   48  A    between atoms: _128  and  _129
REMARK   49  A    between atoms: _128  and  _131
REMARK   50  A    between atoms: _131  and  _132
REMARK   51  A    between atoms: _132  and  _133
REMARK   52  A    between atoms: _138  and  _140
REMARK   53  A    between atoms: _140  and  _141
REMARK   54  A    between atoms: _140  and  _143
REMARK   55  A    between atoms: _143  and  _144
REMARK   56  A    between atoms: _150  and  _152
REMARK   57  A    between atoms: _152  and  _153
REMARK   58  A    between atoms: _152  and  _155
REMARK   59  A    between atoms: _155  and  _156
REMARK   60  A    between atoms: _161  and  _163
REMARK   61  A    between atoms: _163  and  _164
REMARK   62  A    between atoms: _167  and  _169
REMARK   63  A    between atoms: _169  and  _170
REMARK   64  A    between atoms: _169  and  _172
REMARK   65  A    between atoms: _172  and  _173
REMARK   66  A    between atoms: _177  and  _178
REMARK   67  A    between atoms: _183  and  _185
REMARK   68  A    between atoms: _185  and  _186
REMARK   69  A    between atoms: _189  and  _191
REMARK   70  A    between atoms: _191  and  _192
REMARK   71  A    between atoms: _191  and  _194
REMARK   72  A    between atoms: _194  and  _195
REMARK   73  A    between atoms: _195  and  _196
REMARK   74  A    between atoms: _196  and  _197
REMARK   75  A    between atoms: _197  and  _198
REMARK   76  A    between atoms: _202  and  _204
REMARK   77  A    between atoms: _204  and  _205
REMARK   78  A    between atoms: _204  and  _207
REMARK   79  A    between atoms: _210  and  _212
REMARK   80  A    between atoms: _212  and  _213
REMARK   81  A    between atoms: _212  and  _215
REMARK   82  A    between atoms: _215  and  _216
REMARK   83  A    between atoms: _221  and  _222
REMARK   84  A    between atoms: _224  and  _226
REMARK   85  A    between atoms: _226  and  _227
REMARK   86  A    between atoms: _226  and  _229
REMARK   87  A    between atoms: _232  and  _234
REMARK   88  A    between atoms: _234  and  _235
REMARK   89  A    between atoms: _234  and  _237
REMARK   90  A    between atoms: _237  and  _238
REMARK   91  A    between atoms: _238  and  _239
REMARK   92  A    between atoms: _239  and  _240
REMARK   93  A    between atoms: _240  and  _241
REMARK   94  A    between atoms: _245  and  _247
REMARK   95  A    between atoms: _247  and  _248
REMARK   96  A    between atoms: _247  and  _250
REMARK   97  A    between atoms: _250  and  _251
REMARK   98  A    between atoms: _254  and  _256
REMARK   99  A    between atoms: _256  and  _257
REMARK  100  A    between atoms: _260  and  _262
REMARK  101  A    between atoms: _262  and  _263
REMARK  102  A    between atoms: _262  and  _265
REMARK  103  A    between atoms: _265  and  _266
REMARK  104  A    between atoms: _266  and  _267
REMARK  105  A    between atoms: _267  and  _268
REMARK                            x       y       z     vdW  Elec       q    Type
REMARK                         _______ _______ _______ _____ _____    ______ ____
ROOT
ATOM      1  O   HOH     1       3.882  13.872   4.753  0.00  0.00    +0.000 OA
ENDROOT
TORSDOF 0
REMARK  Name = ../refined-set-2016/1h6h/1h6h_pocket.pdb
REMARK  105 active torsions:
REMARK  status: ('A' for Active; 'I' for Inactive)
REMARK    1  A    between atoms: _1  and  _3
REMARK    2  A    between atoms: _3  and  _4
REMARK    3  A    between atoms: _3  and  _6
REMARK    4  A    between atoms: _6  and  _7
REMARK    5  A    between atoms: _10  and  _12
REMARK    6  A    between atoms: _12  and  _13
REMARK    7  A    between atoms: _12  and  _15
REMARK    8  A    between atoms: _15  and  _16
REMARK    9  A    between atoms: _18  and  _20
REMARK   10  A    between atoms: _20  and  _21
REMARK   11  A    between atoms: _20  and  _23
REMARK   12  A    between atoms: _23  and  _24
REMARK   13  A    between atoms: _29  and  _31
REMARK   14  A    between atoms: _31  and  _32
REMARK   15  A    between atoms: _31  and  _34
REMARK   16  A    between atoms: _34  and  _35
REMARK   17  A    between atoms: _41  and  _43
REMARK   18  A    between atoms: _43  and  _44
REMARK   19  A    between atoms: _43  and  _46
REMARK   20  A    between atoms: _49  and  _51
REMARK   21  A    between atoms: _51  and  _52
REMARK   22  A    between atoms: _51  and  _54
REMARK   23  A    between atoms: _54  and  _55
REMARK   24  A    between atoms: _61  and  _63
REMARK   25  A    between atoms: _63  and  _64
REMARK   26  A    between atoms: _63  and  _66
REMARK   27  A    between atoms: _66  and  _67
REMARK   28  A    between atoms: _67  and  _68
REMARK   29  A    between atoms: _68  and  _69
REMARK   30  A    between atoms: _78  and  _80
REMARK   31  A    between atoms: _80  and  _81
REMARK   32  A    between atoms: _80  and  _83
REMARK   33  A    between atoms: _83  and  _84
REMARK   34  A    between atoms: _84  and  _85
REMARK   35  A    between atoms: _85  and  _86
REMARK   36  A    between atoms: _95  and  _97
REMARK   37  A    between atoms: _97  and  _98
REMARK   38  A    between atoms: _97  and  _100
REMARK   39  A    between atoms: _100  and  _101
REMARK   40  A    between atoms: _106  and  _107
REMARK   41  A    between atoms: _109  and  _111
REMARK   42  A    between atoms: _111  and  _112
REMARK   43  A    between atoms: _111  and  _114
REMARK   44  A    between atoms: _114  and  _115
REMARK   45  A    between atoms: _115  and  _116
REMARK   46  A    between atoms: _116  and  _117
REMARK   47  A    between atoms: _126  and  _128
REMARK   48  A    between atoms: _128  and  _129
REMARK   49  A    between atoms: _128  and  _131
REMARK   50  A    between atoms: _131  and  _132
REMARK   51  A    between atoms: _132  and  _133
REMARK   52  A    between atoms: _138  and  _140
REMARK   53  A    between atoms: _140  and  _141
REMARK   54  A    between atoms: _140  and  _143
REMARK   55  A    between atoms: _143  and  _144
REMARK   56  A    between atoms: _150  and  _152
REMARK   57  A    between atoms: _152  and  _153
REMARK   58  A    between atoms: _152  and  _155
REMARK   59  A    between atoms: _155  and  _156
REMARK   60  A    between atoms: _161  and  _163
REMARK   61  A    between atoms: _163  and  _164
REMARK   62  A    between atoms: _167  and  _169
REMARK   63  A    between atoms: _169  and  _170
REMARK   64  A    between atoms: _169  and  _172
REMARK   65  A    between atoms: _172  and  _173
REMARK   66  A    between atoms: _177  and  _178
REMARK   67  A    between atoms: _183  and  _185
REMARK   68  A    between atoms: _185  and  _186
REMARK   69  A    between atoms: _189  and  _191
REMARK   70  A    between atoms: _191  and  _192
REMARK   71  A    between atoms: _191  and  _194
REMARK   72  A    between atoms: _194  and  _195
REMARK   73  A    between atoms: _195  and  _196
REMARK   74  A    between atoms: _196  and  _197
REMARK   75  A    between atoms: _197  and  _198
REMARK   76  A    between atoms: _202  and  _204
REMARK   77  A    between atoms: _204  and  _205
REMARK   78  A    between atoms: _204  and  _207
REMARK   79  A    between atoms: _210  and  _212
REMARK   80  A    between atoms: _212  and  _213
REMARK   81  A    between atoms: _212  and  _215
REMARK   82  A    between atoms: _215  and  _216
REMARK   83  A    between atoms: _221  and  _222
REMARK   84  A    between atoms: _224  and  _226
REMARK   85  A    between atoms: _226  and  _227
REMARK   86  A    between atoms: _226  and  _229
REMARK   87  A    between atoms: _232  and  _234
REMARK   88  A    between atoms: _234  and  _235
REMARK   89  A    between atoms: _234  and  _237
REMARK   90  A    between atoms: _237  and  _238
REMARK   91  A    between atoms: _238  and  _239
REMARK   92  A    between atoms: _239  and  _240
REMARK   93  A    between atoms: _240  and  _241
REMARK   94  A    between atoms: _245  and  _247
REMARK   95  A    between atoms: _247  and  _248
REMARK   96  A    between atoms: _247  and  _250
REMARK   97  A    between atoms: _250  and  _251
REMARK   98  A    between atoms: _254  and  _256
REMARK   99  A    between atoms: _256  and  _257
REMARK  100  A    between atoms: _260  and  _262
REMARK  101  A    between atoms: _262  and  _263
REMARK  102  A    between atoms: _262  and  _265
REMARK  103  A    between atoms: _265  and  _266
REMARK  104  A    between atoms: _266  and  _267
REMARK  105  A    between atoms: _267  and  _268
REMARK                            x       y       z     vdW  Elec       q    Type
REMARK                         _______ _______ _______ _____ _____    ______ ____
ROOT
ATOM      1  O   HOH     1       2.517  21.534   4.019  0.00  0.00    +0.000 OA
ENDROOT
TORSDOF 0
REMARK  Name = ../refined-set-2016/1h6h/1h6h_pocket.pdb
REMARK  105 active torsions:
REMARK  status: ('A' for Active; 'I' for Inactive)
REMARK    1  A    between atoms: _1  and  _3
REMARK    2  A    between atoms: _3  and  _4
REMARK    3  A    between atoms: _3  and  _6
REMARK    4  A    between atoms: _6  and  _7
REMARK    5  A    between atoms: _10  and  _12
REMARK    6  A    between atoms: _12  and  _13
REMARK    7  A    between atoms: _12  and  _15
REMARK    8  A    between atoms: _15  and  _16
REMARK    9  A    between atoms: _18  and  _20
REMARK   10  A    between atoms: _20  and  _21
REMARK   11  A    between atoms: _20  and  _23
REMARK   12  A    between atoms: _23  and  _24
REMARK   13  A    between atoms: _29  and  _31
REMARK   14  A    between atoms: _31  and  _32
REMARK   15  A    between atoms: _31  and  _34
REMARK   16  A    between atoms: _34  and  _35
REMARK   17  A    between atoms: _41  and  _43
REMARK   18  A    between atoms: _43  and  _44
REMARK   19  A    between atoms: _43  and  _46
REMARK   20  A    between atoms: _49  and  _51
REMARK   21  A    between atoms: _51  and  _52
REMARK   22  A    between atoms: _51  and  _54
REMARK   23  A    between atoms: _54  and  _55
REMARK   24  A    between atoms: _61  and  _63
REMARK   25  A    between atoms: _63  and  _64
REMARK   26  A    between atoms: _63  and  _66
REMARK   27  A    between atoms: _66  and  _67
REMARK   28  A    between atoms: _67  and  _68
REMARK   29  A    between atoms: _68  and  _69
REMARK   30  A    between atoms: _78  and  _80
REMARK   31  A    between atoms: _80  and  _81
REMARK   32  A    between atoms: _80  and  _83
REMARK   33  A    between atoms: _83  and  _84
REMARK   34  A    between atoms: _84  and  _85
REMARK   35  A    between atoms: _85  and  _86
REMARK   36  A    between atoms: _95  and  _97
REMARK   37  A    between atoms: _97  and  _98
REMARK   38  A    between atoms: _97  and  _100
REMARK   39  A    between atoms: _100  and  _101
REMARK   40  A    between atoms: _106  and  _107
REMARK   41  A    between atoms: _109  and  _111
REMARK   42  A    between atoms: _111  and  _112
REMARK   43  A    between atoms: _111  and  _114
REMARK   44  A    between atoms: _114  and  _115
REMARK   45  A    between atoms: _115  and  _116
REMARK   46  A    between atoms: _116  and  _117
REMARK   47  A    between atoms: _126  and  _128
REMARK   48  A    between atoms: _128  and  _129
REMARK   49  A    between atoms: _128  and  _131
REMARK   50  A    between atoms: _131  and  _132
REMARK   51  A    between atoms: _132  and  _133
REMARK   52  A    between atoms: _138  and  _140
REMARK   53  A    between atoms: _140  and  _141
REMARK   54  A    between atoms: _140  and  _143
REMARK   55  A    between atoms: _143  and  _144
REMARK   56  A    between atoms: _150  and  _152
REMARK   57  A    between atoms: _152  and  _153
REMARK   58  A    between atoms: _152  and  _155
REMARK   59  A    between atoms: _155  and  _156
REMARK   60  A    between atoms: _161  and  _163
REMARK   61  A    between atoms: _163  and  _164
REMARK   62  A    between atoms: _167  and  _169
REMARK   63  A    between atoms: _169  and  _170
REMARK   64  A    between atoms: _169  and  _172
REMARK   65  A    between atoms: _172  and  _173
REMARK   66  A    between atoms: _177  and  _178
REMARK   67  A    between atoms: _183  and  _185
REMARK   68  A    between atoms: _185  and  _186
REMARK   69  A    between atoms: _189  and  _191
REMARK   70  A    between atoms: _191  and  _192
REMARK   71  A    between atoms: _191  and  _194
REMARK   72  A    between atoms: _194  and  _195
REMARK   73  A    between atoms: _195  and  _196
REMARK   74  A    between atoms: _196  and  _197
REMARK   75  A    between atoms: _197  and  _198
REMARK   76  A    between atoms: _202  and  _204
REMARK   77  A    between atoms: _204  and  _205
REMARK   78  A    between atoms: _204  and  _207
REMARK   79  A    between atoms: _210  and  _212
REMARK   80  A    between atoms: _212  and  _213
REMARK   81  A    between atoms: _212  and  _215
REMARK   82  A    between atoms: _215  and  _216
REMARK   83  A    between atoms: _221  and  _222
REMARK   84  A    between atoms: _224  and  _226
REMARK   85  A    between atoms: _226  and  _227
REMARK   86  A    between atoms: _226  and  _229
REMARK   87  A    between atoms: _232  and  _234
REMARK   88  A    between atoms: _234  and  _235
REMARK   89  A    between atoms: _234  and  _237
REMARK   90  A    between atoms: _237  and  _238
REMARK   91  A    between atoms: _238  and  _239
REMARK   92  A    between atoms: _239  and  _240
REMARK   93  A    between atoms: _240  and  _241
REMARK   94  A    between atoms: _245  and  _247
REMARK   95  A    between atoms: _247  and  _248
REMARK   96  A    between atoms: _247  and  _250
REMARK   97  A    between atoms: _250  and  _251
REMARK   98  A    between atoms: _254  and  _256
REMARK   99  A    between atoms: _256  and  _257
REMARK  100  A    between atoms: _260  and  _262
REMARK  101  A    between atoms: _262  and  _263
REMARK  102  A    between atoms: _262  and  _265
REMARK  103  A    between atoms: _265  and  _266
REMARK  104  A    between atoms: _266  and  _267
REMARK  105  A    between atoms: _267  and  _268
REMARK                            x       y       z     vdW  Elec       q    Type
REMARK                         _______ _______ _______ _____ _____    ______ ____
ROOT
ATOM      1  O   HOH     1       0.939  19.028   6.431  0.00  0.00    +0.000 OA
ENDROOT
TORSDOF 0
REMARK  Name = ../refined-set-2016/1h6h/1h6h_pocket.pdb
REMARK  105 active torsions:
REMARK  status: ('A' for Active; 'I' for Inactive)
REMARK    1  A    between atoms: _1  and  _3
REMARK    2  A    between atoms: _3  and  _4
REMARK    3  A    between atoms: _3  and  _6
REMARK    4  A    between atoms: _6  and  _7
REMARK    5  A    between atoms: _10  and  _12
REMARK    6  A    between atoms: _12  and  _13
REMARK    7  A    between atoms: _12  and  _15
REMARK    8  A    between atoms: _15  and  _16
REMARK    9  A    between atoms: _18  and  _20
REMARK   10  A    between atoms: _20  and  _21
REMARK   11  A    between atoms: _20  and  _23
REMARK   12  A    between atoms: _23  and  _24
REMARK   13  A    between atoms: _29  and  _31
REMARK   14  A    between atoms: _31  and  _32
REMARK   15  A    between atoms: _31  and  _34
REMARK   16  A    between atoms: _34  and  _35
REMARK   17  A    between atoms: _41  and  _43
REMARK   18  A    between atoms: _43  and  _44
REMARK   19  A    between atoms: _43  and  _46
REMARK   20  A    between atoms: _49  and  _51
REMARK   21  A    between atoms: _51  and  _52
REMARK   22  A    between atoms: _51  and  _54
REMARK   23  A    between atoms: _54  and  _55
REMARK   24  A    between atoms: _61  and  _63
REMARK   25  A    between atoms: _63  and  _64
REMARK   26  A    between atoms: _63  and  _66
REMARK   27  A    between atoms: _66  and  _67
REMARK   28  A    between atoms: _67  and  _68
REMARK   29  A    between atoms: _68  and  _69
REMARK   30  A    between atoms: _78  and  _80
REMARK   31  A    between atoms: _80  and  _81
REMARK   32  A    between atoms: _80  and  _83
REMARK   33  A    between atoms: _83  and  _84
REMARK   34  A    between atoms: _84  and  _85
REMARK   35  A    between atoms: _85  and  _86
REMARK   36  A    between atoms: _95  and  _97
REMARK   37  A    between atoms: _97  and  _98
REMARK   38  A    between atoms: _97  and  _100
REMARK   39  A    between atoms: _100  and  _101
REMARK   40  A    between atoms: _106  and  _107
REMARK   41  A    between atoms: _109  and  _111
REMARK   42  A    between atoms: _111  and  _112
REMARK   43  A    between atoms: _111  and  _114
REMARK   44  A    between atoms: _114  and  _115
REMARK   45  A    between atoms: _115  and  _116
REMARK   46  A    between atoms: _116  and  _117
REMARK   47  A    between atoms: _126  and  _128
REMARK   48  A    between atoms: _128  and  _129
REMARK   49  A    between atoms: _128  and  _131
REMARK   50  A    between atoms: _131  and  _132
REMARK   51  A    between atoms: _132  and  _133
REMARK   52  A    between atoms: _138  and  _140
REMARK   53  A    between atoms: _140  and  _141
REMARK   54  A    between atoms: _140  and  _143
REMARK   55  A    between atoms: _143  and  _144
REMARK   56  A    between atoms: _150  and  _152
REMARK   57  A    between atoms: _152  and  _153
REMARK   58  A    between atoms: _152  and  _155
REMARK   59  A    between atoms: _155  and  _156
REMARK   60  A    between atoms: _161  and  _163
REMARK   61  A    between atoms: _163  and  _164
REMARK   62  A    between atoms: _167  and  _169
REMARK   63  A    between atoms: _169  and  _170
REMARK   64  A    between atoms: _169  and  _172
REMARK   65  A    between atoms: _172  and  _173
REMARK   66  A    between atoms: _177  and  _178
REMARK   67  A    between atoms: _183  and  _185
REMARK   68  A    between atoms: _185  and  _186
REMARK   69  A    between atoms: _189  and  _191
REMARK   70  A    between atoms: _191  and  _192
REMARK   71  A    between atoms: _191  and  _194
REMARK   72  A    between atoms: _194  and  _195
REMARK   73  A    between atoms: _195  and  _196
REMARK   74  A    between atoms: _196  and  _197
REMARK   75  A    between atoms: _197  and  _198
REMARK   76  A    between atoms: _202  and  _204
REMARK   77  A    between atoms: _204  and  _205
REMARK   78  A    between atoms: _204  and  _207
REMARK   79  A    between atoms: _210  and  _212
REMARK   80  A    between atoms: _212  and  _213
REMARK   81  A    between atoms: _212  and  _215
REMARK   82  A    between atoms: _215  and  _216
REMARK   83  A    between atoms: _221  and  _222
REMARK   84  A    between atoms: _224  and  _226
REMARK   85  A    between atoms: _226  and  _227
REMARK   86  A    between atoms: _226  and  _229
REMARK   87  A    between atoms: _232  and  _234
REMARK   88  A    between atoms: _234  and  _235
REMARK   89  A    between atoms: _234  and  _237
REMARK   90  A    between atoms: _237  and  _238
REMARK   91  A    between atoms: _238  and  _239
REMARK   92  A    between atoms: _239  and  _240
REMARK   93  A    between atoms: _240  and  _241
REMARK   94  A    between atoms: _245  and  _247
REMARK   95  A    between atoms: _247  and  _248
REMARK   96  A    between atoms: _247  and  _250
REMARK   97  A    between atoms: _250  and  _251
REMARK   98  A    between atoms: _254  and  _256
REMARK   99  A    between atoms: _256  and  _257
REMARK  100  A    between atoms: _260  and  _262
REMARK  101  A    between atoms: _262  and  _263
REMARK  102  A    between atoms: _262  and  _265
REMARK  103  A    between atoms: _265  and  _266
REMARK  104  A    between atoms: _266  and  _267
REMARK  105  A    between atoms: _267  and  _268
REMARK                            x       y       z     vdW  Elec       q    Type
REMARK                         _______ _______ _______ _____ _____    ______ ____
ROOT
ATOM      1  O   HOH     1      11.358  23.421  -1.179  0.00  0.00    +0.000 OA
ENDROOT
TORSDOF 0
REMARK  Name = ../refined-set-2016/1h6h/1h6h_pocket.pdb
REMARK  105 active torsions:
REMARK  status: ('A' for Active; 'I' for Inactive)
REMARK    1  A    between atoms: _1  and  _3
REMARK    2  A    between atoms: _3  and  _4
REMARK    3  A    between atoms: _3  and  _6
REMARK    4  A    between atoms: _6  and  _7
REMARK    5  A    between atoms: _10  and  _12
REMARK    6  A    between atoms: _12  and  _13
REMARK    7  A    between atoms: _12  and  _15
REMARK    8  A    between atoms: _15  and  _16
REMARK    9  A    between atoms: _18  and  _20
REMARK   10  A    between atoms: _20  and  _21
REMARK   11  A    between atoms: _20  and  _23
REMARK   12  A    between atoms: _23  and  _24
REMARK   13  A    between atoms: _29  and  _31
REMARK   14  A    between atoms: _31  and  _32
REMARK   15  A    between atoms: _31  and  _34
REMARK   16  A    between atoms: _34  and  _35
REMARK   17  A    between atoms: _41  and  _43
REMARK   18  A    between atoms: _43  and  _44
REMARK   19  A    between atoms: _43  and  _46
REMARK   20  A    between atoms: _49  and  _51
REMARK   21  A    between atoms: _51  and  _52
REMARK   22  A    between atoms: _51  and  _54
REMARK   23  A    between atoms: _54  and  _55
REMARK   24  A    between atoms: _61  and  _63
REMARK   25  A    between atoms: _63  and  _64
REMARK   26  A    between atoms: _63  and  _66
REMARK   27  A    between atoms: _66  and  _67
REMARK   28  A    between atoms: _67  and  _68
REMARK   29  A    between atoms: _68  and  _69
REMARK   30  A    between atoms: _78  and  _80
REMARK   31  A    between atoms: _80  and  _81
REMARK   32  A    between atoms: _80  and  _83
REMARK   33  A    between atoms: _83  and  _84
REMARK   34  A    between atoms: _84  and  _85
REMARK   35  A    between atoms: _85  and  _86
REMARK   36  A    between atoms: _95  and  _97
REMARK   37  A    between atoms: _97  and  _98
REMARK   38  A    between atoms: _97  and  _100
REMARK   39  A    between atoms: _100  and  _101
REMARK   40  A    between atoms: _106  and  _107
REMARK   41  A    between atoms: _109  and  _111
REMARK   42  A    between atoms: _111  and  _112
REMARK   43  A    between atoms: _111  and  _114
REMARK   44  A    between atoms: _114  and  _115
REMARK   45  A    between atoms: _115  and  _116
REMARK   46  A    between atoms: _116  and  _117
REMARK   47  A    between atoms: _126  and  _128
REMARK   48  A    between atoms: _128  and  _129
REMARK   49  A    between atoms: _128  and  _131
REMARK   50  A    between atoms: _131  and  _132
REMARK   51  A    between atoms: _132  and  _133
REMARK   52  A    between atoms: _138  and  _140
REMARK   53  A    between atoms: _140  and  _141
REMARK   54  A    between atoms: _140  and  _143
REMARK   55  A    between atoms: _143  and  _144
REMARK   56  A    between atoms: _150  and  _152
REMARK   57  A    between atoms: _152  and  _153
REMARK   58  A    between atoms: _152  and  _155
REMARK   59  A    between atoms: _155  and  _156
REMARK   60  A    between atoms: _161  and  _163
REMARK   61  A    between atoms: _163  and  _164
REMARK   62  A    between atoms: _167  and  _169
REMARK   63  A    between atoms: _169  and  _170
REMARK   64  A    between atoms: _169  and  _172
REMARK   65  A    between atoms: _172  and  _173
REMARK   66  A    between atoms: _177  and  _178
REMARK   67  A    between atoms: _183  and  _185
REMARK   68  A    between atoms: _185  and  _186
REMARK   69  A    between atoms: _189  and  _191
REMARK   70  A    between atoms: _191  and  _192
REMARK   71  A    between atoms: _191  and  _194
REMARK   72  A    between atoms: _194  and  _195
REMARK   73  A    between atoms: _195  and  _196
REMARK   74  A    between atoms: _196  and  _197
REMARK   75  A    between atoms: _197  and  _198
REMARK   76  A    between atoms: _202  and  _204
REMARK   77  A    between atoms: _204  and  _205
REMARK   78  A    between atoms: _204  and  _207
REMARK   79  A    between atoms: _210  and  _212
REMARK   80  A    between atoms: _212  and  _213
REMARK   81  A    between atoms: _212  and  _215
REMARK   82  A    between atoms: _215  and  _216
REMARK   83  A    between atoms: _221  and  _222
REMARK   84  A    between atoms: _224  and  _226
REMARK   85  A    between atoms: _226  and  _227
REMARK   86  A    between atoms: _226  and  _229
REMARK   87  A    between atoms: _232  and  _234
REMARK   88  A    between atoms: _234  and  _235
REMARK   89  A    between atoms: _234  and  _237
REMARK   90  A    between atoms: _237  and  _238
REMARK   91  A    between atoms: _238  and  _239
REMARK   92  A    between atoms: _239  and  _240
REMARK   93  A    between atoms: _240  and  _241
REMARK   94  A    between atoms: _245  and  _247
REMARK   95  A    between atoms: _247  and  _248
REMARK   96  A    between atoms: _247  and  _250
REMARK   97  A    between atoms: _250  and  _251
REMARK   98  A    between atoms: _254  and  _256
REMARK   99  A    between atoms: _256  and  _257
REMARK  100  A    between atoms: _260  and  _262
REMARK  101  A    between atoms: _262  and  _263
REMARK  102  A    between atoms: _262  and  _265
REMARK  103  A    between atoms: _265  and  _266
REMARK  104  A    between atoms: _266  and  _267
REMARK  105  A    between atoms: _267  and  _268
REMARK                            x       y       z     vdW  Elec       q    Type
REMARK                         _______ _______ _______ _____ _____    ______ ____
ROOT
ATOM      1  O   HOH     1       7.415  24.676   0.199  0.00  0.00    +0.000 OA
ENDROOT
TORSDOF 0
REMARK  Name = ../refined-set-2016/1h6h/1h6h_pocket.pdb
REMARK  105 active torsions:
REMARK  status: ('A' for Active; 'I' for Inactive)
REMARK    1  A    between atoms: _1  and  _3
REMARK    2  A    between atoms: _3  and  _4
REMARK    3  A    between atoms: _3  and  _6
REMARK    4  A    between atoms: _6  and  _7
REMARK    5  A    between atoms: _10  and  _12
REMARK    6  A    between atoms: _12  and  _13
REMARK    7  A    between atoms: _12  and  _15
REMARK    8  A    between atoms: _15  and  _16
REMARK    9  A    between atoms: _18  and  _20
REMARK   10  A    between atoms: _20  and  _21
REMARK   11  A    between atoms: _20  and  _23
REMARK   12  A    between atoms: _23  and  _24
REMARK   13  A    between atoms: _29  and  _31
REMARK   14  A    between atoms: _31  and  _32
REMARK   15  A    between atoms: _31  and  _34
REMARK   16  A    between atoms: _34  and  _35
REMARK   17  A    between atoms: _41  and  _43
REMARK   18  A    between atoms: _43  and  _44
REMARK   19  A    between atoms: _43  and  _46
REMARK   20  A    between atoms: _49  and  _51
REMARK   21  A    between atoms: _51  and  _52
REMARK   22  A    between atoms: _51  and  _54
REMARK   23  A    between atoms: _54  and  _55
REMARK   24  A    between atoms: _61  and  _63
REMARK   25  A    between atoms: _63  and  _64
REMARK   26  A    between atoms: _63  and  _66
REMARK   27  A    between atoms: _66  and  _67
REMARK   28  A    between atoms: _67  and  _68
REMARK   29  A    between atoms: _68  and  _69
REMARK   30  A    between atoms: _78  and  _80
REMARK   31  A    between atoms: _80  and  _81
REMARK   32  A    between atoms: _80  and  _83
REMARK   33  A    between atoms: _83  and  _84
REMARK   34  A    between atoms: _84  and  _85
REMARK   35  A    between atoms: _85  and  _86
REMARK   36  A    between atoms: _95  and  _97
REMARK   37  A    between atoms: _97  and  _98
REMARK   38  A    between atoms: _97  and  _100
REMARK   39  A    between atoms: _100  and  _101
REMARK   40  A    between atoms: _106  and  _107
REMARK   41  A    between atoms: _109  and  _111
REMARK   42  A    between atoms: _111  and  _112
REMARK   43  A    between atoms: _111  and  _114
REMARK   44  A    between atoms: _114  and  _115
REMARK   45  A    between atoms: _115  and  _116
REMARK   46  A    between atoms: _116  and  _117
REMARK   47  A    between atoms: _126  and  _128
REMARK   48  A    between atoms: _128  and  _129
REMARK   49  A    between atoms: _128  and  _131
REMARK   50  A    between atoms: _131  and  _132
REMARK   51  A    between atoms: _132  and  _133
REMARK   52  A    between atoms: _138  and  _140
REMARK   53  A    between atoms: _140  and  _141
REMARK   54  A    between atoms: _140  and  _143
REMARK   55  A    between atoms: _143  and  _144
REMARK   56  A    between atoms: _150  and  _152
REMARK   57  A    between atoms: _152  and  _153
REMARK   58  A    between atoms: _152  and  _155
REMARK   59  A    between atoms: _155  and  _156
REMARK   60  A    between atoms: _161  and  _163
REMARK   61  A    between atoms: _163  and  _164
REMARK   62  A    between atoms: _167  and  _169
REMARK   63  A    between atoms: _169  and  _170
REMARK   64  A    between atoms: _169  and  _172
REMARK   65  A    between atoms: _172  and  _173
REMARK   66  A    between atoms: _177  and  _178
REMARK   67  A    between atoms: _183  and  _185
REMARK   68  A    between atoms: _185  and  _186
REMARK   69  A    between atoms: _189  and  _191
REMARK   70  A    between atoms: _191  and  _192
REMARK   71  A    between atoms: _191  and  _194
REMARK   72  A    between atoms: _194  and  _195
REMARK   73  A    between atoms: _195  and  _196
REMARK   74  A    between atoms: _196  and  _197
REMARK   75  A    between atoms: _197  and  _198
REMARK   76  A    between atoms: _202  and  _204
REMARK   77  A    between atoms: _204  and  _205
REMARK   78  A    between atoms: _204  and  _207
REMARK   79  A    between atoms: _210  and  _212
REMARK   80  A    between atoms: _212  and  _213
REMARK   81  A    between atoms: _212  and  _215
REMARK   82  A    between atoms: _215  and  _216
REMARK   83  A    between atoms: _221  and  _222
REMARK   84  A    between atoms: _224  and  _226
REMARK   85  A    between atoms: _226  and  _227
REMARK   86  A    between atoms: _226  and  _229
REMARK   87  A    between atoms: _232  and  _234
REMARK   88  A    between atoms: _234  and  _235
REMARK   89  A    between atoms: _234  and  _237
REMARK   90  A    between atoms: _237  and  _238
REMARK   91  A    between atoms: _238  and  _239
REMARK   92  A    between atoms: _239  and  _240
REMARK   93  A    between atoms: _240  and  _241
REMARK   94  A    between atoms: _245  and  _247
REMARK   95  A    between atoms: _247  and  _248
REMARK   96  A    between atoms: _247  and  _250
REMARK   97  A    between atoms: _250  and  _251
REMARK   98  A    between atoms: _254  and  _256
REMARK   99  A    between atoms: _256  and  _257
REMARK  100  A    between atoms: _260  and  _262
REMARK  101  A    between atoms: _262  and  _263
REMARK  102  A    between atoms: _262  and  _265
REMARK  103  A    between atoms: _265  and  _266
REMARK  104  A    between atoms: _266  and  _267
REMARK  105  A    between atoms: _267  and  _268
REMARK                            x       y       z     vdW  Elec       q    Type
REMARK                         _______ _______ _______ _____ _____    ______ ____
ROOT
ATOM      1  O   HOH     1       4.542  20.165   0.382  0.00  0.00    +0.000 OA
ENDROOT
TORSDOF 0
REMARK  Name = ../refined-set-2016/1h6h/1h6h_pocket.pdb
REMARK  105 active torsions:
REMARK  status: ('A' for Active; 'I' for Inactive)
REMARK    1  A    between atoms: _1  and  _3
REMARK    2  A    between atoms: _3  and  _4
REMARK    3  A    between atoms: _3  and  _6
REMARK    4  A    between atoms: _6  and  _7
REMARK    5  A    between atoms: _10  and  _12
REMARK    6  A    between atoms: _12  and  _13
REMARK    7  A    between atoms: _12  and  _15
REMARK    8  A    between atoms: _15  and  _16
REMARK    9  A    between atoms: _18  and  _20
REMARK   10  A    between atoms: _20  and  _21
REMARK   11  A    between atoms: _20  and  _23
REMARK   12  A    between atoms: _23  and  _24
REMARK   13  A    between atoms: _29  and  _31
REMARK   14  A    between atoms: _31  and  _32
REMARK   15  A    between atoms: _31  and  _34
REMARK   16  A    between atoms: _34  and  _35
REMARK   17  A    between atoms: _41  and  _43
REMARK   18  A    between atoms: _43  and  _44
REMARK   19  A    between atoms: _43  and  _46
REMARK   20  A    between atoms: _49  and  _51
REMARK   21  A    between atoms: _51  and  _52
REMARK   22  A    between atoms: _51  and  _54
REMARK   23  A    between atoms: _54  and  _55
REMARK   24  A    between atoms: _61  and  _63
REMARK   25  A    between atoms: _63  and  _64
REMARK   26  A    between atoms: _63  and  _66
REMARK   27  A    between atoms: _66  and  _67
REMARK   28  A    between atoms: _67  and  _68
REMARK   29  A    between atoms: _68  and  _69
REMARK   30  A    between atoms: _78  and  _80
REMARK   31  A    between atoms: _80  and  _81
REMARK   32  A    between atoms: _80  and  _83
REMARK   33  A    between atoms: _83  and  _84
REMARK   34  A    between atoms: _84  and  _85
REMARK   35  A    between atoms: _85  and  _86
REMARK   36  A    between atoms: _95  and  _97
REMARK   37  A    between atoms: _97  and  _98
REMARK   38  A    between atoms: _97  and  _100
REMARK   39  A    between atoms: _100  and  _101
REMARK   40  A    between atoms: _106  and  _107
REMARK   41  A    between atoms: _109  and  _111
REMARK   42  A    between atoms: _111  and  _112
REMARK   43  A    between atoms: _111  and  _114
REMARK   44  A    between atoms: _114  and  _115
REMARK   45  A    between atoms: _115  and  _116
REMARK   46  A    between atoms: _116  and  _117
REMARK   47  A    between atoms: _126  and  _128
REMARK   48  A    between atoms: _128  and  _129
REMARK   49  A    between atoms: _128  and  _131
REMARK   50  A    between atoms: _131  and  _132
REMARK   51  A    between atoms: _132  and  _133
REMARK   52  A    between atoms: _138  and  _140
REMARK   53  A    between atoms: _140  and  _141
REMARK   54  A    between atoms: _140  and  _143
REMARK   55  A    between atoms: _143  and  _144
REMARK   56  A    between atoms: _150  and  _152
REMARK   57  A    between atoms: _152  and  _153
REMARK   58  A    between atoms: _152  and  _155
REMARK   59  A    between atoms: _155  and  _156
REMARK   60  A    between atoms: _161  and  _163
REMARK   61  A    between atoms: _163  and  _164
REMARK   62  A    between atoms: _167  and  _169
REMARK   63  A    between atoms: _169  and  _170
REMARK   64  A    between atoms: _169  and  _172
REMARK   65  A    between atoms: _172  and  _173
REMARK   66  A    between atoms: _177  and  _178
REMARK   67  A    between atoms: _183  and  _185
REMARK   68  A    between atoms: _185  and  _186
REMARK   69  A    between atoms: _189  and  _191
REMARK   70  A    between atoms: _191  and  _192
REMARK   71  A    between atoms: _191  and  _194
REMARK   72  A    between atoms: _194  and  _195
REMARK   73  A    between atoms: _195  and  _196
REMARK   74  A    between atoms: _196  and  _197
REMARK   75  A    between atoms: _197  and  _198
REMARK   76  A    between atoms: _202  and  _204
REMARK   77  A    between atoms: _204  and  _205
REMARK   78  A    between atoms: _204  and  _207
REMARK   79  A    between atoms: _210  and  _212
REMARK   80  A    between atoms: _212  and  _213
REMARK   81  A    between atoms: _212  and  _215
REMARK   82  A    between atoms: _215  and  _216
REMARK   83  A    between atoms: _221  and  _222
REMARK   84  A    between atoms: _224  and  _226
REMARK   85  A    between atoms: _226  and  _227
REMARK   86  A    between atoms: _226  and  _229
REMARK   87  A    between atoms: _232  and  _234
REMARK   88  A    between atoms: _234  and  _235
REMARK   89  A    between atoms: _234  and  _237
REMARK   90  A    between atoms: _237  and  _238
REMARK   91  A    between atoms: _238  and  _239
REMARK   92  A    between atoms: _239  and  _240
REMARK   93  A    between atoms: _240  and  _241
REMARK   94  A    between atoms: _245  and  _247
REMARK   95  A    between atoms: _247  and  _248
REMARK   96  A    between atoms: _247  and  _250
REMARK   97  A    between atoms: _250  and  _251
REMARK   98  A    between atoms: _254  and  _256
REMARK   99  A    between atoms: _256  and  _257
REMARK  100  A    between atoms: _260  and  _262
REMARK  101  A    between atoms: _262  and  _263
REMARK  102  A    between atoms: _262  and  _265
REMARK  103  A    between atoms: _265  and  _266
REMARK  104  A    between atoms: _266  and  _267
REMARK  105  A    between atoms: _267  and  _268
REMARK                            x       y       z     vdW  Elec       q    Type
REMARK                         _______ _______ _______ _____ _____    ______ ____
ROOT
ATOM      1  O   HOH     1       9.020  18.286  11.077  0.00  0.00    +0.000 OA
ENDROOT
TORSDOF 0
REMARK  Name = ../refined-set-2016/1h6h/1h6h_pocket.pdb
REMARK  105 active torsions:
REMARK  status: ('A' for Active; 'I' for Inactive)
REMARK    1  A    between atoms: _1  and  _3
REMARK    2  A    between atoms: _3  and  _4
REMARK    3  A    between atoms: _3  and  _6
REMARK    4  A    between atoms: _6  and  _7
REMARK    5  A    between atoms: _10  and  _12
REMARK    6  A    between atoms: _12  and  _13
REMARK    7  A    between atoms: _12  and  _15
REMARK    8  A    between atoms: _15  and  _16
REMARK    9  A    between atoms: _18  and  _20
REMARK   10  A    between atoms: _20  and  _21
REMARK   11  A    between atoms: _20  and  _23
REMARK   12  A    between atoms: _23  and  _24
REMARK   13  A    between atoms: _29  and  _31
REMARK   14  A    between atoms: _31  and  _32
REMARK   15  A    between atoms: _31  and  _34
REMARK   16  A    between atoms: _34  and  _35
REMARK   17  A    between atoms: _41  and  _43
REMARK   18  A    between atoms: _43  and  _44
REMARK   19  A    between atoms: _43  and  _46
REMARK   20  A    between atoms: _49  and  _51
REMARK   21  A    between atoms: _51  and  _52
REMARK   22  A    between atoms: _51  and  _54
REMARK   23  A    between atoms: _54  and  _55
REMARK   24  A    between atoms: _61  and  _63
REMARK   25  A    between atoms: _63  and  _64
REMARK   26  A    between atoms: _63  and  _66
REMARK   27  A    between atoms: _66  and  _67
REMARK   28  A    between atoms: _67  and  _68
REMARK   29  A    between atoms: _68  and  _69
REMARK   30  A    between atoms: _78  and  _80
REMARK   31  A    between atoms: _80  and  _81
REMARK   32  A    between atoms: _80  and  _83
REMARK   33  A    between atoms: _83  and  _84
REMARK   34  A    between atoms: _84  and  _85
REMARK   35  A    between atoms: _85  and  _86
REMARK   36  A    between atoms: _95  and  _97
REMARK   37  A    between atoms: _97  and  _98
REMARK   38  A    between atoms: _97  and  _100
REMARK   39  A    between atoms: _100  and  _101
REMARK   40  A    between atoms: _106  and  _107
REMARK   41  A    between atoms: _109  and  _111
REMARK   42  A    between atoms: _111  and  _112
REMARK   43  A    between atoms: _111  and  _114
REMARK   44  A    between atoms: _114  and  _115
REMARK   45  A    between atoms: _115  and  _116
REMARK   46  A    between atoms: _116  and  _117
REMARK   47  A    between atoms: _126  and  _128
REMARK   48  A    between atoms: _128  and  _129
REMARK   49  A    between atoms: _128  and  _131
REMARK   50  A    between atoms: _131  and  _132
REMARK   51  A    between atoms: _132  and  _133
REMARK   52  A    between atoms: _138  and  _140
REMARK   53  A    between atoms: _140  and  _141
REMARK   54  A    between atoms: _140  and  _143
REMARK   55  A    between atoms: _143  and  _144
REMARK   56  A    between atoms: _150  and  _152
REMARK   57  A    between atoms: _152  and  _153
REMARK   58  A    between atoms: _152  and  _155
REMARK   59  A    between atoms: _155  and  _156
REMARK   60  A    between atoms: _161  and  _163
REMARK   61  A    between atoms: _163  and  _164
REMARK   62  A    between atoms: _167  and  _169
REMARK   63  A    between atoms: _169  and  _170
REMARK   64  A    between atoms: _169  and  _172
REMARK   65  A    between atoms: _172  and  _173
REMARK   66  A    between atoms: _177  and  _178
REMARK   67  A    between atoms: _183  and  _185
REMARK   68  A    between atoms: _185  and  _186
REMARK   69  A    between atoms: _189  and  _191
REMARK   70  A    between atoms: _191  and  _192
REMARK   71  A    between atoms: _191  and  _194
REMARK   72  A    between atoms: _194  and  _195
REMARK   73  A    between atoms: _195  and  _196
REMARK   74  A    between atoms: _196  and  _197
REMARK   75  A    between atoms: _197  and  _198
REMARK   76  A    between atoms: _202  and  _204
REMARK   77  A    between atoms: _204  and  _205
REMARK   78  A    between atoms: _204  and  _207
REMARK   79  A    between atoms: _210  and  _212
REMARK   80  A    between atoms: _212  and  _213
REMARK   81  A    between atoms: _212  and  _215
REMARK   82  A    between atoms: _215  and  _216
REMARK   83  A    between atoms: _221  and  _222
REMARK   84  A    between atoms: _224  and  _226
REMARK   85  A    between atoms: _226  and  _227
REMARK   86  A    between atoms: _226  and  _229
REMARK   87  A    between atoms: _232  and  _234
REMARK   88  A    between atoms: _234  and  _235
REMARK   89  A    between atoms: _234  and  _237
REMARK   90  A    between atoms: _237  and  _238
REMARK   91  A    between atoms: _238  and  _239
REMARK   92  A    between atoms: _239  and  _240
REMARK   93  A    between atoms: _240  and  _241
REMARK   94  A    between atoms: _245  and  _247
REMARK   95  A    between atoms: _247  and  _248
REMARK   96  A    between atoms: _247  and  _250
REMARK   97  A    between atoms: _250  and  _251
REMARK   98  A    between atoms: _254  and  _256
REMARK   99  A    between atoms: _256  and  _257
REMARK  100  A    between atoms: _260  and  _262
REMARK  101  A    between atoms: _262  and  _263
REMARK  102  A    between atoms: _262  and  _265
REMARK  103  A    between atoms: _265  and  _266
REMARK  104  A    between atoms: _266  and  _267
REMARK  105  A    between atoms: _267  and  _268
REMARK                            x       y       z     vdW  Elec       q    Type
REMARK                         _______ _______ _______ _____ _____    ______ ____
ROOT
ATOM      1  O   HOH     1       2.700  21.979   8.474  0.00  0.00    +0.000 OA
ENDROOT
TORSDOF 0
REMARK  Name = ../refined-set-2016/1h6h/1h6h_pocket.pdb
REMARK  105 active torsions:
REMARK  status: ('A' for Active; 'I' for Inactive)
REMARK    1  A    between atoms: _1  and  _3
REMARK    2  A    between atoms: _3  and  _4
REMARK    3  A    between atoms: _3  and  _6
REMARK    4  A    between atoms: _6  and  _7
REMARK    5  A    between atoms: _10  and  _12
REMARK    6  A    between atoms: _12  and  _13
REMARK    7  A    between atoms: _12  and  _15
REMARK    8  A    between atoms: _15  and  _16
REMARK    9  A    between atoms: _18  and  _20
REMARK   10  A    between atoms: _20  and  _21
REMARK   11  A    between atoms: _20  and  _23
REMARK   12  A    between atoms: _23  and  _24
REMARK   13  A    between atoms: _29  and  _31
REMARK   14  A    between atoms: _31  and  _32
REMARK   15  A    between atoms: _31  and  _34
REMARK   16  A    between atoms: _34  and  _35
REMARK   17  A    between atoms: _41  and  _43
REMARK   18  A    between atoms: _43  and  _44
REMARK   19  A    between atoms: _43  and  _46
REMARK   20  A    between atoms: _49  and  _51
REMARK   21  A    between atoms: _51  and  _52
REMARK   22  A    between atoms: _51  and  _54
REMARK   23  A    between atoms: _54  and  _55
REMARK   24  A    between atoms: _61  and  _63
REMARK   25  A    between atoms: _63  and  _64
REMARK   26  A    between atoms: _63  and  _66
REMARK   27  A    between atoms: _66  and  _67
REMARK   28  A    between atoms: _67  and  _68
REMARK   29  A    between atoms: _68  and  _69
REMARK   30  A    between atoms: _78  and  _80
REMARK   31  A    between atoms: _80  and  _81
REMARK   32  A    between atoms: _80  and  _83
REMARK   33  A    between atoms: _83  and  _84
REMARK   34  A    between atoms: _84  and  _85
REMARK   35  A    between atoms: _85  and  _86
REMARK   36  A    between atoms: _95  and  _97
REMARK   37  A    between atoms: _97  and  _98
REMARK   38  A    between atoms: _97  and  _100
REMARK   39  A    between atoms: _100  and  _101
REMARK   40  A    between atoms: _106  and  _107
REMARK   41  A    between atoms: _109  and  _111
REMARK   42  A    between atoms: _111  and  _112
REMARK   43  A    between atoms: _111  and  _114
REMARK   44  A    between atoms: _114  and  _115
REMARK   45  A    between atoms: _115  and  _116
REMARK   46  A    between atoms: _116  and  _117
REMARK   47  A    between atoms: _126  and  _128
REMARK   48  A    between atoms: _128  and  _129
REMARK   49  A    between atoms: _128  and  _131
REMARK   50  A    between atoms: _131  and  _132
REMARK   51  A    between atoms: _132  and  _133
REMARK   52  A    between atoms: _138  and  _140
REMARK   53  A    between atoms: _140  and  _141
REMARK   54  A    between atoms: _140  and  _143
REMARK   55  A    between atoms: _143  and  _144
REMARK   56  A    between atoms: _150  and  _152
REMARK   57  A    between atoms: _152  and  _153
REMARK   58  A    between atoms: _152  and  _155
REMARK   59  A    between atoms: _155  and  _156
REMARK   60  A    between atoms: _161  and  _163
REMARK   61  A    between atoms: _163  and  _164
REMARK   62  A    between atoms: _167  and  _169
REMARK   63  A    between atoms: _169  and  _170
REMARK   64  A    between atoms: _169  and  _172
REMARK   65  A    between atoms: _172  and  _173
REMARK   66  A    between atoms: _177  and  _178
REMARK   67  A    between atoms: _183  and  _185
REMARK   68  A    between atoms: _185  and  _186
REMARK   69  A    between atoms: _189  and  _191
REMARK   70  A    between atoms: _191  and  _192
REMARK   71  A    between atoms: _191  and  _194
REMARK   72  A    between atoms: _194  and  _195
REMARK   73  A    between atoms: _195  and  _196
REMARK   74  A    between atoms: _196  and  _197
REMARK   75  A    between atoms: _197  and  _198
REMARK   76  A    between atoms: _202  and  _204
REMARK   77  A    between atoms: _204  and  _205
REMARK   78  A    between atoms: _204  and  _207
REMARK   79  A    between atoms: _210  and  _212
REMARK   80  A    between atoms: _212  and  _213
REMARK   81  A    between atoms: _212  and  _215
REMARK   82  A    between atoms: _215  and  _216
REMARK   83  A    between atoms: _221  and  _222
REMARK   84  A    between atoms: _224  and  _226
REMARK   85  A    between atoms: _226  and  _227
REMARK   86  A    between atoms: _226  and  _229
REMARK   87  A    between atoms: _232  and  _234
REMARK   88  A    between atoms: _234  and  _235
REMARK   89  A    between atoms: _234  and  _237
REMARK   90  A    between atoms: _237  and  _238
REMARK   91  A    between atoms: _238  and  _239
REMARK   92  A    between atoms: _239  and  _240
REMARK   93  A    between atoms: _240  and  _241
REMARK   94  A    between atoms: _245  and  _247
REMARK   95  A    between atoms: _247  and  _248
REMARK   96  A    between atoms: _247  and  _250
REMARK   97  A    between atoms: _250  and  _251
REMARK   98  A    between atoms: _254  and  _256
REMARK   99  A    between atoms: _256  and  _257
REMARK  100  A    between atoms: _260  and  _262
REMARK  101  A    between atoms: _262  and  _263
REMARK  102  A    between atoms: _262  and  _265
REMARK  103  A    between atoms: _265  and  _266
REMARK  104  A    between atoms: _266  and  _267
REMARK  105  A    between atoms: _267  and  _268
REMARK                            x       y       z     vdW  Elec       q    Type
REMARK                         _______ _______ _______ _____ _____    ______ ____
ROOT
ATOM      1  O   HOH     1       3.094  21.623  11.091  0.00  0.00    +0.000 OA
ENDROOT
TORSDOF 0
REMARK  Name = ../refined-set-2016/1h6h/1h6h_pocket.pdb
REMARK  105 active torsions:
REMARK  status: ('A' for Active; 'I' for Inactive)
REMARK    1  A    between atoms: _1  and  _3
REMARK    2  A    between atoms: _3  and  _4
REMARK    3  A    between atoms: _3  and  _6
REMARK    4  A    between atoms: _6  and  _7
REMARK    5  A    between atoms: _10  and  _12
REMARK    6  A    between atoms: _12  and  _13
REMARK    7  A    between atoms: _12  and  _15
REMARK    8  A    between atoms: _15  and  _16
REMARK    9  A    between atoms: _18  and  _20
REMARK   10  A    between atoms: _20  and  _21
REMARK   11  A    between atoms: _20  and  _23
REMARK   12  A    between atoms: _23  and  _24
REMARK   13  A    between atoms: _29  and  _31
REMARK   14  A    between atoms: _31  and  _32
REMARK   15  A    between atoms: _31  and  _34
REMARK   16  A    between atoms: _34  and  _35
REMARK   17  A    between atoms: _41  and  _43
REMARK   18  A    between atoms: _43  and  _44
REMARK   19  A    between atoms: _43  and  _46
REMARK   20  A    between atoms: _49  and  _51
REMARK   21  A    between atoms: _51  and  _52
REMARK   22  A    between atoms: _51  and  _54
REMARK   23  A    between atoms: _54  and  _55
REMARK   24  A    between atoms: _61  and  _63
REMARK   25  A    between atoms: _63  and  _64
REMARK   26  A    between atoms: _63  and  _66
REMARK   27  A    between atoms: _66  and  _67
REMARK   28  A    between atoms: _67  and  _68
REMARK   29  A    between atoms: _68  and  _69
REMARK   30  A    between atoms: _78  and  _80
REMARK   31  A    between atoms: _80  and  _81
REMARK   32  A    between atoms: _80  and  _83
REMARK   33  A    between atoms: _83  and  _84
REMARK   34  A    between atoms: _84  and  _85
REMARK   35  A    between atoms: _85  and  _86
REMARK   36  A    between atoms: _95  and  _97
REMARK   37  A    between atoms: _97  and  _98
REMARK   38  A    between atoms: _97  and  _100
REMARK   39  A    between atoms: _100  and  _101
REMARK   40  A    between atoms: _106  and  _107
REMARK   41  A    between atoms: _109  and  _111
REMARK   42  A    between atoms: _111  and  _112
REMARK   43  A    between atoms: _111  and  _114
REMARK   44  A    between atoms: _114  and  _115
REMARK   45  A    between atoms: _115  and  _116
REMARK   46  A    between atoms: _116  and  _117
REMARK   47  A    between atoms: _126  and  _128
REMARK   48  A    between atoms: _128  and  _129
REMARK   49  A    between atoms: _128  and  _131
REMARK   50  A    between atoms: _131  and  _132
REMARK   51  A    between atoms: _132  and  _133
REMARK   52  A    between atoms: _138  and  _140
REMARK   53  A    between atoms: _140  and  _141
REMARK   54  A    between atoms: _140  and  _143
REMARK   55  A    between atoms: _143  and  _144
REMARK   56  A    between atoms: _150  and  _152
REMARK   57  A    between atoms: _152  and  _153
REMARK   58  A    between atoms: _152  and  _155
REMARK   59  A    between atoms: _155  and  _156
REMARK   60  A    between atoms: _161  and  _163
REMARK   61  A    between atoms: _163  and  _164
REMARK   62  A    between atoms: _167  and  _169
REMARK   63  A    between atoms: _169  and  _170
REMARK   64  A    between atoms: _169  and  _172
REMARK   65  A    between atoms: _172  and  _173
REMARK   66  A    between atoms: _177  and  _178
REMARK   67  A    between atoms: _183  and  _185
REMARK   68  A    between atoms: _185  and  _186
REMARK   69  A    between atoms: _189  and  _191
REMARK   70  A    between atoms: _191  and  _192
REMARK   71  A    between atoms: _191  and  _194
REMARK   72  A    between atoms: _194  and  _195
REMARK   73  A    between atoms: _195  and  _196
REMARK   74  A    between atoms: _196  and  _197
REMARK   75  A    between atoms: _197  and  _198
REMARK   76  A    between atoms: _202  and  _204
REMARK   77  A    between atoms: _204  and  _205
REMARK   78  A    between atoms: _204  and  _207
REMARK   79  A    between atoms: _210  and  _212
REMARK   80  A    between atoms: _212  and  _213
REMARK   81  A    between atoms: _212  and  _215
REMARK   82  A    between atoms: _215  and  _216
REMARK   83  A    between atoms: _221  and  _222
REMARK   84  A    between atoms: _224  and  _226
REMARK   85  A    between atoms: _226  and  _227
REMARK   86  A    between atoms: _226  and  _229
REMARK   87  A    between atoms: _232  and  _234
REMARK   88  A    between atoms: _234  and  _235
REMARK   89  A    between atoms: _234  and  _237
REMARK   90  A    between atoms: _237  and  _238
REMARK   91  A    between atoms: _238  and  _239
REMARK   92  A    between atoms: _239  and  _240
REMARK   93  A    between atoms: _240  and  _241
REMARK   94  A    between atoms: _245  and  _247
REMARK   95  A    between atoms: _247  and  _248
REMARK   96  A    between atoms: _247  and  _250
REMARK   97  A    between atoms: _250  and  _251
REMARK   98  A    between atoms: _254  and  _256
REMARK   99  A    between atoms: _256  and  _257
REMARK  100  A    between atoms: _260  and  _262
REMARK  101  A    between atoms: _262  and  _263
REMARK  102  A    between atoms: _262  and  _265
REMARK  103  A    between atoms: _265  and  _266
REMARK  104  A    between atoms: _266  and  _267
REMARK  105  A    between atoms: _267  and  _268
REMARK                            x       y       z     vdW  Elec       q    Type
REMARK                         _______ _______ _______ _____ _____    ______ ____
ROOT
ATOM      1  O   HOH     1       9.261  18.670  13.874  0.00  0.00    +0.000 OA
ENDROOT
TORSDOF 0
REMARK  Name = ../refined-set-2016/1h6h/1h6h_pocket.pdb
REMARK  105 active torsions:
REMARK  status: ('A' for Active; 'I' for Inactive)
REMARK    1  A    between atoms: _1  and  _3
REMARK    2  A    between atoms: _3  and  _4
REMARK    3  A    between atoms: _3  and  _6
REMARK    4  A    between atoms: _6  and  _7
REMARK    5  A    between atoms: _10  and  _12
REMARK    6  A    between atoms: _12  and  _13
REMARK    7  A    between atoms: _12  and  _15
REMARK    8  A    between atoms: _15  and  _16
REMARK    9  A    between atoms: _18  and  _20
REMARK   10  A    between atoms: _20  and  _21
REMARK   11  A    between atoms: _20  and  _23
REMARK   12  A    between atoms: _23  and  _24
REMARK   13  A    between atoms: _29  and  _31
REMARK   14  A    between atoms: _31  and  _32
REMARK   15  A    between atoms: _31  and  _34
REMARK   16  A    between atoms: _34  and  _35
REMARK   17  A    between atoms: _41  and  _43
REMARK   18  A    between atoms: _43  and  _44
REMARK   19  A    between atoms: _43  and  _46
REMARK   20  A    between atoms: _49  and  _51
REMARK   21  A    between atoms: _51  and  _52
REMARK   22  A    between atoms: _51  and  _54
REMARK   23  A    between atoms: _54  and  _55
REMARK   24  A    between atoms: _61  and  _63
REMARK   25  A    between atoms: _63  and  _64
REMARK   26  A    between atoms: _63  and  _66
REMARK   27  A    between atoms: _66  and  _67
REMARK   28  A    between atoms: _67  and  _68
REMARK   29  A    between atoms: _68  and  _69
REMARK   30  A    between atoms: _78  and  _80
REMARK   31  A    between atoms: _80  and  _81
REMARK   32  A    between atoms: _80  and  _83
REMARK   33  A    between atoms: _83  and  _84
REMARK   34  A    between atoms: _84  and  _85
REMARK   35  A    between atoms: _85  and  _86
REMARK   36  A    between atoms: _95  and  _97
REMARK   37  A    between atoms: _97  and  _98
REMARK   38  A    between atoms: _97  and  _100
REMARK   39  A    between atoms: _100  and  _101
REMARK   40  A    between atoms: _106  and  _107
REMARK   41  A    between atoms: _109  and  _111
REMARK   42  A    between atoms: _111  and  _112
REMARK   43  A    between atoms: _111  and  _114
REMARK   44  A    between atoms: _114  and  _115
REMARK   45  A    between atoms: _115  and  _116
REMARK   46  A    between atoms: _116  and  _117
REMARK   47  A    between atoms: _126  and  _128
REMARK   48  A    between atoms: _128  and  _129
REMARK   49  A    between atoms: _128  and  _131
REMARK   50  A    between atoms: _131  and  _132
REMARK   51  A    between atoms: _132  and  _133
REMARK   52  A    between atoms: _138  and  _140
REMARK   53  A    between atoms: _140  and  _141
REMARK   54  A    between atoms: _140  and  _143
REMARK   55  A    between atoms: _143  and  _144
REMARK   56  A    between atoms: _150  and  _152
REMARK   57  A    between atoms: _152  and  _153
REMARK   58  A    between atoms: _152  and  _155
REMARK   59  A    between atoms: _155  and  _156
REMARK   60  A    between atoms: _161  and  _163
REMARK   61  A    between atoms: _163  and  _164
REMARK   62  A    between atoms: _167  and  _169
REMARK   63  A    between atoms: _169  and  _170
REMARK   64  A    between atoms: _169  and  _172
REMARK   65  A    between atoms: _172  and  _173
REMARK   66  A    between atoms: _177  and  _178
REMARK   67  A    between atoms: _183  and  _185
REMARK   68  A    between atoms: _185  and  _186
REMARK   69  A    between atoms: _189  and  _191
REMARK   70  A    between atoms: _191  and  _192
REMARK   71  A    between atoms: _191  and  _194
REMARK   72  A    between atoms: _194  and  _195
REMARK   73  A    between atoms: _195  and  _196
REMARK   74  A    between atoms: _196  and  _197
REMARK   75  A    between atoms: _197  and  _198
REMARK   76  A    between atoms: _202  and  _204
REMARK   77  A    between atoms: _204  and  _205
REMARK   78  A    between atoms: _204  and  _207
REMARK   79  A    between atoms: _210  and  _212
REMARK   80  A    between atoms: _212  and  _213
REMARK   81  A    between atoms: _212  and  _215
REMARK   82  A    between atoms: _215  and  _216
REMARK   83  A    between atoms: _221  and  _222
REMARK   84  A    between atoms: _224  and  _226
REMARK   85  A    between atoms: _226  and  _227
REMARK   86  A    between atoms: _226  and  _229
REMARK   87  A    between atoms: _232  and  _234
REMARK   88  A    between atoms: _234  and  _235
REMARK   89  A    between atoms: _234  and  _237
REMARK   90  A    between atoms: _237  and  _238
REMARK   91  A    between atoms: _238  and  _239
REMARK   92  A    between atoms: _239  and  _240
REMARK   93  A    between atoms: _240  and  _241
REMARK   94  A    between atoms: _245  and  _247
REMARK   95  A    between atoms: _247  and  _248
REMARK   96  A    between atoms: _247  and  _250
REMARK   97  A    between atoms: _250  and  _251
REMARK   98  A    between atoms: _254  and  _256
REMARK   99  A    between atoms: _256  and  _257
REMARK  100  A    between atoms: _260  and  _262
REMARK  101  A    between atoms: _262  and  _263
REMARK  102  A    between atoms: _262  and  _265
REMARK  103  A    between atoms: _265  and  _266
REMARK  104  A    between atoms: _266  and  _267
REMARK  105  A    between atoms: _267  and  _268
REMARK                            x       y       z     vdW  Elec       q    Type
REMARK                         _______ _______ _______ _____ _____    ______ ____
ROOT
ATOM      1  O   HOH     1      10.540  13.185  10.251  0.00  0.00    +0.000 OA
ENDROOT
TORSDOF 0
REMARK  Name = ../refined-set-2016/1h6h/1h6h_pocket.pdb
REMARK  105 active torsions:
REMARK  status: ('A' for Active; 'I' for Inactive)
REMARK    1  A    between atoms: _1  and  _3
REMARK    2  A    between atoms: _3  and  _4
REMARK    3  A    between atoms: _3  and  _6
REMARK    4  A    between atoms: _6  and  _7
REMARK    5  A    between atoms: _10  and  _12
REMARK    6  A    between atoms: _12  and  _13
REMARK    7  A    between atoms: _12  and  _15
REMARK    8  A    between atoms: _15  and  _16
REMARK    9  A    between atoms: _18  and  _20
REMARK   10  A    between atoms: _20  and  _21
REMARK   11  A    between atoms: _20  and  _23
REMARK   12  A    between atoms: _23  and  _24
REMARK   13  A    between atoms: _29  and  _31
REMARK   14  A    between atoms: _31  and  _32
REMARK   15  A    between atoms: _31  and  _34
REMARK   16  A    between atoms: _34  and  _35
REMARK   17  A    between atoms: _41  and  _43
REMARK   18  A    between atoms: _43  and  _44
REMARK   19  A    between atoms: _43  and  _46
REMARK   20  A    between atoms: _49  and  _51
REMARK   21  A    between atoms: _51  and  _52
REMARK   22  A    between atoms: _51  and  _54
REMARK   23  A    between atoms: _54  and  _55
REMARK   24  A    between atoms: _61  and  _63
REMARK   25  A    between atoms: _63  and  _64
REMARK   26  A    between atoms: _63  and  _66
REMARK   27  A    between atoms: _66  and  _67
REMARK   28  A    between atoms: _67  and  _68
REMARK   29  A    between atoms: _68  and  _69
REMARK   30  A    between atoms: _78  and  _80
REMARK   31  A    between atoms: _80  and  _81
REMARK   32  A    between atoms: _80  and  _83
REMARK   33  A    between atoms: _83  and  _84
REMARK   34  A    between atoms: _84  and  _85
REMARK   35  A    between atoms: _85  and  _86
REMARK   36  A    between atoms: _95  and  _97
REMARK   37  A    between atoms: _97  and  _98
REMARK   38  A    between atoms: _97  and  _100
REMARK   39  A    between atoms: _100  and  _101
REMARK   40  A    between atoms: _106  and  _107
REMARK   41  A    between atoms: _109  and  _111
REMARK   42  A    between atoms: _111  and  _112
REMARK   43  A    between atoms: _111  and  _114
REMARK   44  A    between atoms: _114  and  _115
REMARK   45  A    between atoms: _115  and  _116
REMARK   46  A    between atoms: _116  and  _117
REMARK   47  A    between atoms: _126  and  _128
REMARK   48  A    between atoms: _128  and  _129
REMARK   49  A    between atoms: _128  and  _131
REMARK   50  A    between atoms: _131  and  _132
REMARK   51  A    between atoms: _132  and  _133
REMARK   52  A    between atoms: _138  and  _140
REMARK   53  A    between atoms: _140  and  _141
REMARK   54  A    between atoms: _140  and  _143
REMARK   55  A    between atoms: _143  and  _144
REMARK   56  A    between atoms: _150  and  _152
REMARK   57  A    between atoms: _152  and  _153
REMARK   58  A    between atoms: _152  and  _155
REMARK   59  A    between atoms: _155  and  _156
REMARK   60  A    between atoms: _161  and  _163
REMARK   61  A    between atoms: _163  and  _164
REMARK   62  A    between atoms: _167  and  _169
REMARK   63  A    between atoms: _169  and  _170
REMARK   64  A    between atoms: _169  and  _172
REMARK   65  A    between atoms: _172  and  _173
REMARK   66  A    between atoms: _177  and  _178
REMARK   67  A    between atoms: _183  and  _185
REMARK   68  A    between atoms: _185  and  _186
REMARK   69  A    between atoms: _189  and  _191
REMARK   70  A    between atoms: _191  and  _192
REMARK   71  A    between atoms: _191  and  _194
REMARK   72  A    between atoms: _194  and  _195
REMARK   73  A    between atoms: _195  and  _196
REMARK   74  A    between atoms: _196  and  _197
REMARK   75  A    between atoms: _197  and  _198
REMARK   76  A    between atoms: _202  and  _204
REMARK   77  A    between atoms: _204  and  _205
REMARK   78  A    between atoms: _204  and  _207
REMARK   79  A    between atoms: _210  and  _212
REMARK   80  A    between atoms: _212  and  _213
REMARK   81  A    between atoms: _212  and  _215
REMARK   82  A    between atoms: _215  and  _216
REMARK   83  A    between atoms: _221  and  _222
REMARK   84  A    between atoms: _224  and  _226
REMARK   85  A    between atoms: _226  and  _227
REMARK   86  A    between atoms: _226  and  _229
REMARK   87  A    between atoms: _232  and  _234
REMARK   88  A    between atoms: _234  and  _235
REMARK   89  A    between atoms: _234  and  _237
REMARK   90  A    between atoms: _237  and  _238
REMARK   91  A    between atoms: _238  and  _239
REMARK   92  A    between atoms: _239  and  _240
REMARK   93  A    between atoms: _240  and  _241
REMARK   94  A    between atoms: _245  and  _247
REMARK   95  A    between atoms: _247  and  _248
REMARK   96  A    between atoms: _247  and  _250
REMARK   97  A    between atoms: _250  and  _251
REMARK   98  A    between atoms: _254  and  _256
REMARK   99  A    between atoms: _256  and  _257
REMARK  100  A    between atoms: _260  and  _262
REMARK  101  A    between atoms: _262  and  _263
REMARK  102  A    between atoms: _262  and  _265
REMARK  103  A    between atoms: _265  and  _266
REMARK  104  A    between atoms: _266  and  _267
REMARK  105  A    between atoms: _267  and  _268
REMARK                            x       y       z     vdW  Elec       q    Type
REMARK                         _______ _______ _______ _____ _____    ______ ____
ROOT
ATOM      1  O   HOH     1      10.232  12.069   7.615  0.00  0.00    +0.000 OA
ENDROOT
TORSDOF 0
REMARK  Name = ../refined-set-2016/1h6h/1h6h_pocket.pdb
REMARK  105 active torsions:
REMARK  status: ('A' for Active; 'I' for Inactive)
REMARK    1  A    between atoms: _1  and  _3
REMARK    2  A    between atoms: _3  and  _4
REMARK    3  A    between atoms: _3  and  _6
REMARK    4  A    between atoms: _6  and  _7
REMARK    5  A    between atoms: _10  and  _12
REMARK    6  A    between atoms: _12  and  _13
REMARK    7  A    between atoms: _12  and  _15
REMARK    8  A    between atoms: _15  and  _16
REMARK    9  A    between atoms: _18  and  _20
REMARK   10  A    between atoms: _20  and  _21
REMARK   11  A    between atoms: _20  and  _23
REMARK   12  A    between atoms: _23  and  _24
REMARK   13  A    between atoms: _29  and  _31
REMARK   14  A    between atoms: _31  and  _32
REMARK   15  A    between atoms: _31  and  _34
REMARK   16  A    between atoms: _34  and  _35
REMARK   17  A    between atoms: _41  and  _43
REMARK   18  A    between atoms: _43  and  _44
REMARK   19  A    between atoms: _43  and  _46
REMARK   20  A    between atoms: _49  and  _51
REMARK   21  A    between atoms: _51  and  _52
REMARK   22  A    between atoms: _51  and  _54
REMARK   23  A    between atoms: _54  and  _55
REMARK   24  A    between atoms: _61  and  _63
REMARK   25  A    between atoms: _63  and  _64
REMARK   26  A    between atoms: _63  and  _66
REMARK   27  A    between atoms: _66  and  _67
REMARK   28  A    between atoms: _67  and  _68
REMARK   29  A    between atoms: _68  and  _69
REMARK   30  A    between atoms: _78  and  _80
REMARK   31  A    between atoms: _80  and  _81
REMARK   32  A    between atoms: _80  and  _83
REMARK   33  A    between atoms: _83  and  _84
REMARK   34  A    between atoms: _84  and  _85
REMARK   35  A    between atoms: _85  and  _86
REMARK   36  A    between atoms: _95  and  _97
REMARK   37  A    between atoms: _97  and  _98
REMARK   38  A    between atoms: _97  and  _100
REMARK   39  A    between atoms: _100  and  _101
REMARK   40  A    between atoms: _106  and  _107
REMARK   41  A    between atoms: _109  and  _111
REMARK   42  A    between atoms: _111  and  _112
REMARK   43  A    between atoms: _111  and  _114
REMARK   44  A    between atoms: _114  and  _115
REMARK   45  A    between atoms: _115  and  _116
REMARK   46  A    between atoms: _116  and  _117
REMARK   47  A    between atoms: _126  and  _128
REMARK   48  A    between atoms: _128  and  _129
REMARK   49  A    between atoms: _128  and  _131
REMARK   50  A    between atoms: _131  and  _132
REMARK   51  A    between atoms: _132  and  _133
REMARK   52  A    between atoms: _138  and  _140
REMARK   53  A    between atoms: _140  and  _141
REMARK   54  A    between atoms: _140  and  _143
REMARK   55  A    between atoms: _143  and  _144
REMARK   56  A    between atoms: _150  and  _152
REMARK   57  A    between atoms: _152  and  _153
REMARK   58  A    between atoms: _152  and  _155
REMARK   59  A    between atoms: _155  and  _156
REMARK   60  A    between atoms: _161  and  _163
REMARK   61  A    between atoms: _163  and  _164
REMARK   62  A    between atoms: _167  and  _169
REMARK   63  A    between atoms: _169  and  _170
REMARK   64  A    between atoms: _169  and  _172
REMARK   65  A    between atoms: _172  and  _173
REMARK   66  A    between atoms: _177  and  _178
REMARK   67  A    between atoms: _183  and  _185
REMARK   68  A    between atoms: _185  and  _186
REMARK   69  A    between atoms: _189  and  _191
REMARK   70  A    between atoms: _191  and  _192
REMARK   71  A    between atoms: _191  and  _194
REMARK   72  A    between atoms: _194  and  _195
REMARK   73  A    between atoms: _195  and  _196
REMARK   74  A    between atoms: _196  and  _197
REMARK   75  A    between atoms: _197  and  _198
REMARK   76  A    between atoms: _202  and  _204
REMARK   77  A    between atoms: _204  and  _205
REMARK   78  A    between atoms: _204  and  _207
REMARK   79  A    between atoms: _210  and  _212
REMARK   80  A    between atoms: _212  and  _213
REMARK   81  A    between atoms: _212  and  _215
REMARK   82  A    between atoms: _215  and  _216
REMARK   83  A    between atoms: _221  and  _222
REMARK   84  A    between atoms: _224  and  _226
REMARK   85  A    between atoms: _226  and  _227
REMARK   86  A    between atoms: _226  and  _229
REMARK   87  A    between atoms: _232  and  _234
REMARK   88  A    between atoms: _234  and  _235
REMARK   89  A    between atoms: _234  and  _237
REMARK   90  A    between atoms: _237  and  _238
REMARK   91  A    between atoms: _238  and  _239
REMARK   92  A    between atoms: _239  and  _240
REMARK   93  A    between atoms: _240  and  _241
REMARK   94  A    between atoms: _245  and  _247
REMARK   95  A    between atoms: _247  and  _248
REMARK   96  A    between atoms: _247  and  _250
REMARK   97  A    between atoms: _250  and  _251
REMARK   98  A    between atoms: _254  and  _256
REMARK   99  A    between atoms: _256  and  _257
REMARK  100  A    between atoms: _260  and  _262
REMARK  101  A    between atoms: _262  and  _263
REMARK  102  A    between atoms: _262  and  _265
REMARK  103  A    between atoms: _265  and  _266
REMARK  104  A    between atoms: _266  and  _267
REMARK  105  A    between atoms: _267  and  _268
REMARK                            x       y       z     vdW  Elec       q    Type
REMARK                         _______ _______ _______ _____ _____    ______ ____
ROOT
ATOM      1  O   HOH     1      15.273  19.579   6.733  0.00  0.00    +0.000 OA
ENDROOT
TORSDOF 0
REMARK  Name = ../refined-set-2016/1h6h/1h6h_pocket.pdb
REMARK  105 active torsions:
REMARK  status: ('A' for Active; 'I' for Inactive)
REMARK    1  A    between atoms: _1  and  _3
REMARK    2  A    between atoms: _3  and  _4
REMARK    3  A    between atoms: _3  and  _6
REMARK    4  A    between atoms: _6  and  _7
REMARK    5  A    between atoms: _10  and  _12
REMARK    6  A    between atoms: _12  and  _13
REMARK    7  A    between atoms: _12  and  _15
REMARK    8  A    between atoms: _15  and  _16
REMARK    9  A    between atoms: _18  and  _20
REMARK   10  A    between atoms: _20  and  _21
REMARK   11  A    between atoms: _20  and  _23
REMARK   12  A    between atoms: _23  and  _24
REMARK   13  A    between atoms: _29  and  _31
REMARK   14  A    between atoms: _31  and  _32
REMARK   15  A    between atoms: _31  and  _34
REMARK   16  A    between atoms: _34  and  _35
REMARK   17  A    between atoms: _41  and  _43
REMARK   18  A    between atoms: _43  and  _44
REMARK   19  A    between atoms: _43  and  _46
REMARK   20  A    between atoms: _49  and  _51
REMARK   21  A    between atoms: _51  and  _52
REMARK   22  A    between atoms: _51  and  _54
REMARK   23  A    between atoms: _54  and  _55
REMARK   24  A    between atoms: _61  and  _63
REMARK   25  A    between atoms: _63  and  _64
REMARK   26  A    between atoms: _63  and  _66
REMARK   27  A    between atoms: _66  and  _67
REMARK   28  A    between atoms: _67  and  _68
REMARK   29  A    between atoms: _68  and  _69
REMARK   30  A    between atoms: _78  and  _80
REMARK   31  A    between atoms: _80  and  _81
REMARK   32  A    between atoms: _80  and  _83
REMARK   33  A    between atoms: _83  and  _84
REMARK   34  A    between atoms: _84  and  _85
REMARK   35  A    between atoms: _85  and  _86
REMARK   36  A    between atoms: _95  and  _97
REMARK   37  A    between atoms: _97  and  _98
REMARK   38  A    between atoms: _97  and  _100
REMARK   39  A    between atoms: _100  and  _101
REMARK   40  A    between atoms: _106  and  _107
REMARK   41  A    between atoms: _109  and  _111
REMARK   42  A    between atoms: _111  and  _112
REMARK   43  A    between atoms: _111  and  _114
REMARK   44  A    between atoms: _114  and  _115
REMARK   45  A    between atoms: _115  and  _116
REMARK   46  A    between atoms: _116  and  _117
REMARK   47  A    between atoms: _126  and  _128
REMARK   48  A    between atoms: _128  and  _129
REMARK   49  A    between atoms: _128  and  _131
REMARK   50  A    between atoms: _131  and  _132
REMARK   51  A    between atoms: _132  and  _133
REMARK   52  A    between atoms: _138  and  _140
REMARK   53  A    between atoms: _140  and  _141
REMARK   54  A    between atoms: _140  and  _143
REMARK   55  A    between atoms: _143  and  _144
REMARK   56  A    between atoms: _150  and  _152
REMARK   57  A    between atoms: _152  and  _153
REMARK   58  A    between atoms: _152  and  _155
REMARK   59  A    between atoms: _155  and  _156
REMARK   60  A    between atoms: _161  and  _163
REMARK   61  A    between atoms: _163  and  _164
REMARK   62  A    between atoms: _167  and  _169
REMARK   63  A    between atoms: _169  and  _170
REMARK   64  A    between atoms: _169  and  _172
REMARK   65  A    between atoms: _172  and  _173
REMARK   66  A    between atoms: _177  and  _178
REMARK   67  A    between atoms: _183  and  _185
REMARK   68  A    between atoms: _185  and  _186
REMARK   69  A    between atoms: _189  and  _191
REMARK   70  A    between atoms: _191  and  _192
REMARK   71  A    between atoms: _191  and  _194
REMARK   72  A    between atoms: _194  and  _195
REMARK   73  A    between atoms: _195  and  _196
REMARK   74  A    between atoms: _196  and  _197
REMARK   75  A    between atoms: _197  and  _198
REMARK   76  A    between atoms: _202  and  _204
REMARK   77  A    between atoms: _204  and  _205
REMARK   78  A    between atoms: _204  and  _207
REMARK   79  A    between atoms: _210  and  _212
REMARK   80  A    between atoms: _212  and  _213
REMARK   81  A    between atoms: _212  and  _215
REMARK   82  A    between atoms: _215  and  _216
REMARK   83  A    between atoms: _221  and  _222
REMARK   84  A    between atoms: _224  and  _226
REMARK   85  A    between atoms: _226  and  _227
REMARK   86  A    between atoms: _226  and  _229
REMARK   87  A    between atoms: _232  and  _234
REMARK   88  A    between atoms: _234  and  _235
REMARK   89  A    between atoms: _234  and  _237
REMARK   90  A    between atoms: _237  and  _238
REMARK   91  A    between atoms: _238  and  _239
REMARK   92  A    between atoms: _239  and  _240
REMARK   93  A    between atoms: _240  and  _241
REMARK   94  A    between atoms: _245  and  _247
REMARK   95  A    between atoms: _247  and  _248
REMARK   96  A    between atoms: _247  and  _250
REMARK   97  A    between atoms: _250  and  _251
REMARK   98  A    between atoms: _254  and  _256
REMARK   99  A    between atoms: _256  and  _257
REMARK  100  A    between atoms: _260  and  _262
REMARK  101  A    between atoms: _262  and  _263
REMARK  102  A    between atoms: _262  and  _265
REMARK  103  A    between atoms: _265  and  _266
REMARK  104  A    between atoms: _266  and  _267
REMARK  105  A    between atoms: _267  and  _268
REMARK                            x       y       z     vdW  Elec       q    Type
REMARK                         _______ _______ _______ _____ _____    ______ ____
ROOT
ATOM      1  O   HOH     1      13.177  14.008   9.513  0.00  0.00    +0.000 OA
ENDROOT
TORSDOF 0
REMARK  Name = ../refined-set-2016/1h6h/1h6h_pocket.pdb
REMARK  105 active torsions:
REMARK  status: ('A' for Active; 'I' for Inactive)
REMARK    1  A    between atoms: _1  and  _3
REMARK    2  A    between atoms: _3  and  _4
REMARK    3  A    between atoms: _3  and  _6
REMARK    4  A    between atoms: _6  and  _7
REMARK    5  A    between atoms: _10  and  _12
REMARK    6  A    between atoms: _12  and  _13
REMARK    7  A    between atoms: _12  and  _15
REMARK    8  A    between atoms: _15  and  _16
REMARK    9  A    between atoms: _18  and  _20
REMARK   10  A    between atoms: _20  and  _21
REMARK   11  A    between atoms: _20  and  _23
REMARK   12  A    between atoms: _23  and  _24
REMARK   13  A    between atoms: _29  and  _31
REMARK   14  A    between atoms: _31  and  _32
REMARK   15  A    between atoms: _31  and  _34
REMARK   16  A    between atoms: _34  and  _35
REMARK   17  A    between atoms: _41  and  _43
REMARK   18  A    between atoms: _43  and  _44
REMARK   19  A    between atoms: _43  and  _46
REMARK   20  A    between atoms: _49  and  _51
REMARK   21  A    between atoms: _51  and  _52
REMARK   22  A    between atoms: _51  and  _54
REMARK   23  A    between atoms: _54  and  _55
REMARK   24  A    between atoms: _61  and  _63
REMARK   25  A    between atoms: _63  and  _64
REMARK   26  A    between atoms: _63  and  _66
REMARK   27  A    between atoms: _66  and  _67
REMARK   28  A    between atoms: _67  and  _68
REMARK   29  A    between atoms: _68  and  _69
REMARK   30  A    between atoms: _78  and  _80
REMARK   31  A    between atoms: _80  and  _81
REMARK   32  A    between atoms: _80  and  _83
REMARK   33  A    between atoms: _83  and  _84
REMARK   34  A    between atoms: _84  and  _85
REMARK   35  A    between atoms: _85  and  _86
REMARK   36  A    between atoms: _95  and  _97
REMARK   37  A    between atoms: _97  and  _98
REMARK   38  A    between atoms: _97  and  _100
REMARK   39  A    between atoms: _100  and  _101
REMARK   40  A    between atoms: _106  and  _107
REMARK   41  A    between atoms: _109  and  _111
REMARK   42  A    between atoms: _111  and  _112
REMARK   43  A    between atoms: _111  and  _114
REMARK   44  A    between atoms: _114  and  _115
REMARK   45  A    between atoms: _115  and  _116
REMARK   46  A    between atoms: _116  and  _117
REMARK   47  A    between atoms: _126  and  _128
REMARK   48  A    between atoms: _128  and  _129
REMARK   49  A    between atoms: _128  and  _131
REMARK   50  A    between atoms: _131  and  _132
REMARK   51  A    between atoms: _132  and  _133
REMARK   52  A    between atoms: _138  and  _140
REMARK   53  A    between atoms: _140  and  _141
REMARK   54  A    between atoms: _140  and  _143
REMARK   55  A    between atoms: _143  and  _144
REMARK   56  A    between atoms: _150  and  _152
REMARK   57  A    between atoms: _152  and  _153
REMARK   58  A    between atoms: _152  and  _155
REMARK   59  A    between atoms: _155  and  _156
REMARK   60  A    between atoms: _161  and  _163
REMARK   61  A    between atoms: _163  and  _164
REMARK   62  A    between atoms: _167  and  _169
REMARK   63  A    between atoms: _169  and  _170
REMARK   64  A    between atoms: _169  and  _172
REMARK   65  A    between atoms: _172  and  _173
REMARK   66  A    between atoms: _177  and  _178
REMARK   67  A    between atoms: _183  and  _185
REMARK   68  A    between atoms: _185  and  _186
REMARK   69  A    between atoms: _189  and  _191
REMARK   70  A    between atoms: _191  and  _192
REMARK   71  A    between atoms: _191  and  _194
REMARK   72  A    between atoms: _194  and  _195
REMARK   73  A    between atoms: _195  and  _196
REMARK   74  A    between atoms: _196  and  _197
REMARK   75  A    between atoms: _197  and  _198
REMARK   76  A    between atoms: _202  and  _204
REMARK   77  A    between atoms: _204  and  _205
REMARK   78  A    between atoms: _204  and  _207
REMARK   79  A    between atoms: _210  and  _212
REMARK   80  A    between atoms: _212  and  _213
REMARK   81  A    between atoms: _212  and  _215
REMARK   82  A    between atoms: _215  and  _216
REMARK   83  A    between atoms: _221  and  _222
REMARK   84  A    between atoms: _224  and  _226
REMARK   85  A    between atoms: _226  and  _227
REMARK   86  A    between atoms: _226  and  _229
REMARK   87  A    between atoms: _232  and  _234
REMARK   88  A    between atoms: _234  and  _235
REMARK   89  A    between atoms: _234  and  _237
REMARK   90  A    between atoms: _237  and  _238
REMARK   91  A    between atoms: _238  and  _239
REMARK   92  A    between atoms: _239  and  _240
REMARK   93  A    between atoms: _240  and  _241
REMARK   94  A    between atoms: _245  and  _247
REMARK   95  A    between atoms: _247  and  _248
REMARK   96  A    between atoms: _247  and  _250
REMARK   97  A    between atoms: _250  and  _251
REMARK   98  A    between atoms: _254  and  _256
REMARK   99  A    between atoms: _256  and  _257
REMARK  100  A    between atoms: _260  and  _262
REMARK  101  A    between atoms: _262  and  _263
REMARK  102  A    between atoms: _262  and  _265
REMARK  103  A    between atoms: _265  and  _266
REMARK  104  A    between atoms: _266  and  _267
REMARK  105  A    between atoms: _267  and  _268
REMARK                            x       y       z     vdW  Elec       q    Type
REMARK                         _______ _______ _______ _____ _____    ______ ____
ROOT
ATOM      1  O   HOH     1      14.273  23.971   2.219  0.00  0.00    +0.000 OA
ENDROOT
TORSDOF 0
REMARK  Name = ../refined-set-2016/1h6h/1h6h_pocket.pdb
REMARK  105 active torsions:
REMARK  status: ('A' for Active; 'I' for Inactive)
REMARK    1  A    between atoms: _1  and  _3
REMARK    2  A    between atoms: _3  and  _4
REMARK    3  A    between atoms: _3  and  _6
REMARK    4  A    between atoms: _6  and  _7
REMARK    5  A    between atoms: _10  and  _12
REMARK    6  A    between atoms: _12  and  _13
REMARK    7  A    between atoms: _12  and  _15
REMARK    8  A    between atoms: _15  and  _16
REMARK    9  A    between atoms: _18  and  _20
REMARK   10  A    between atoms: _20  and  _21
REMARK   11  A    between atoms: _20  and  _23
REMARK   12  A    between atoms: _23  and  _24
REMARK   13  A    between atoms: _29  and  _31
REMARK   14  A    between atoms: _31  and  _32
REMARK   15  A    between atoms: _31  and  _34
REMARK   16  A    between atoms: _34  and  _35
REMARK   17  A    between atoms: _41  and  _43
REMARK   18  A    between atoms: _43  and  _44
REMARK   19  A    between atoms: _43  and  _46
REMARK   20  A    between atoms: _49  and  _51
REMARK   21  A    between atoms: _51  and  _52
REMARK   22  A    between atoms: _51  and  _54
REMARK   23  A    between atoms: _54  and  _55
REMARK   24  A    between atoms: _61  and  _63
REMARK   25  A    between atoms: _63  and  _64
REMARK   26  A    between atoms: _63  and  _66
REMARK   27  A    between atoms: _66  and  _67
REMARK   28  A    between atoms: _67  and  _68
REMARK   29  A    between atoms: _68  and  _69
REMARK   30  A    between atoms: _78  and  _80
REMARK   31  A    between atoms: _80  and  _81
REMARK   32  A    between atoms: _80  and  _83
REMARK   33  A    between atoms: _83  and  _84
REMARK   34  A    between atoms: _84  and  _85
REMARK   35  A    between atoms: _85  and  _86
REMARK   36  A    between atoms: _95  and  _97
REMARK   37  A    between atoms: _97  and  _98
REMARK   38  A    between atoms: _97  and  _100
REMARK   39  A    between atoms: _100  and  _101
REMARK   40  A    between atoms: _106  and  _107
REMARK   41  A    between atoms: _109  and  _111
REMARK   42  A    between atoms: _111  and  _112
REMARK   43  A    between atoms: _111  and  _114
REMARK   44  A    between atoms: _114  and  _115
REMARK   45  A    between atoms: _115  and  _116
REMARK   46  A    between atoms: _116  and  _117
REMARK   47  A    between atoms: _126  and  _128
REMARK   48  A    between atoms: _128  and  _129
REMARK   49  A    between atoms: _128  and  _131
REMARK   50  A    between atoms: _131  and  _132
REMARK   51  A    between atoms: _132  and  _133
REMARK   52  A    between atoms: _138  and  _140
REMARK   53  A    between atoms: _140  and  _141
REMARK   54  A    between atoms: _140  and  _143
REMARK   55  A    between atoms: _143  and  _144
REMARK   56  A    between atoms: _150  and  _152
REMARK   57  A    between atoms: _152  and  _153
REMARK   58  A    between atoms: _152  and  _155
REMARK   59  A    between atoms: _155  and  _156
REMARK   60  A    between atoms: _161  and  _163
REMARK   61  A    between atoms: _163  and  _164
REMARK   62  A    between atoms: _167  and  _169
REMARK   63  A    between atoms: _169  and  _170
REMARK   64  A    between atoms: _169  and  _172
REMARK   65  A    between atoms: _172  and  _173
REMARK   66  A    between atoms: _177  and  _178
REMARK   67  A    between atoms: _183  and  _185
REMARK   68  A    between atoms: _185  and  _186
REMARK   69  A    between atoms: _189  and  _191
REMARK   70  A    between atoms: _191  and  _192
REMARK   71  A    between atoms: _191  and  _194
REMARK   72  A    between atoms: _194  and  _195
REMARK   73  A    between atoms: _195  and  _196
REMARK   74  A    between atoms: _196  and  _197
REMARK   75  A    between atoms: _197  and  _198
REMARK   76  A    between atoms: _202  and  _204
REMARK   77  A    between atoms: _204  and  _205
REMARK   78  A    between atoms: _204  and  _207
REMARK   79  A    between atoms: _210  and  _212
REMARK   80  A    between atoms: _212  and  _213
REMARK   81  A    between atoms: _212  and  _215
REMARK   82  A    between atoms: _215  and  _216
REMARK   83  A    between atoms: _221  and  _222
REMARK   84  A    between atoms: _224  and  _226
REMARK   85  A    between atoms: _226  and  _227
REMARK   86  A    between atoms: _226  and  _229
REMARK   87  A    between atoms: _232  and  _234
REMARK   88  A    between atoms: _234  and  _235
REMARK   89  A    between atoms: _234  and  _237
REMARK   90  A    between atoms: _237  and  _238
REMARK   91  A    between atoms: _238  and  _239
REMARK   92  A    between atoms: _239  and  _240
REMARK   93  A    between atoms: _240  and  _241
REMARK   94  A    between atoms: _245  and  _247
REMARK   95  A    between atoms: _247  and  _248
REMARK   96  A    between atoms: _247  and  _250
REMARK   97  A    between atoms: _250  and  _251
REMARK   98  A    between atoms: _254  and  _256
REMARK   99  A    between atoms: _256  and  _257
REMARK  100  A    between atoms: _260  and  _262
REMARK  101  A    between atoms: _262  and  _263
REMARK  102  A    between atoms: _262  and  _265
REMARK  103  A    between atoms: _265  and  _266
REMARK  104  A    between atoms: _266  and  _267
REMARK  105  A    between atoms: _267  and  _268
REMARK                            x       y       z     vdW  Elec       q    Type
REMARK                         _______ _______ _______ _____ _____    ______ ____
ROOT
ATOM      1  O   HOH     1      13.748  16.844   9.846  0.00  0.00    +0.000 OA
ENDROOT
TORSDOF 0
REMARK  Name = ../refined-set-2016/1h6h/1h6h_pocket.pdb
REMARK  105 active torsions:
REMARK  status: ('A' for Active; 'I' for Inactive)
REMARK    1  A    between atoms: _1  and  _3
REMARK    2  A    between atoms: _3  and  _4
REMARK    3  A    between atoms: _3  and  _6
REMARK    4  A    between atoms: _6  and  _7
REMARK    5  A    between atoms: _10  and  _12
REMARK    6  A    between atoms: _12  and  _13
REMARK    7  A    between atoms: _12  and  _15
REMARK    8  A    between atoms: _15  and  _16
REMARK    9  A    between atoms: _18  and  _20
REMARK   10  A    between atoms: _20  and  _21
REMARK   11  A    between atoms: _20  and  _23
REMARK   12  A    between atoms: _23  and  _24
REMARK   13  A    between atoms: _29  and  _31
REMARK   14  A    between atoms: _31  and  _32
REMARK   15  A    between atoms: _31  and  _34
REMARK   16  A    between atoms: _34  and  _35
REMARK   17  A    between atoms: _41  and  _43
REMARK   18  A    between atoms: _43  and  _44
REMARK   19  A    between atoms: _43  and  _46
REMARK   20  A    between atoms: _49  and  _51
REMARK   21  A    between atoms: _51  and  _52
REMARK   22  A    between atoms: _51  and  _54
REMARK   23  A    between atoms: _54  and  _55
REMARK   24  A    between atoms: _61  and  _63
REMARK   25  A    between atoms: _63  and  _64
REMARK   26  A    between atoms: _63  and  _66
REMARK   27  A    between atoms: _66  and  _67
REMARK   28  A    between atoms: _67  and  _68
REMARK   29  A    between atoms: _68  and  _69
REMARK   30  A    between atoms: _78  and  _80
REMARK   31  A    between atoms: _80  and  _81
REMARK   32  A    between atoms: _80  and  _83
REMARK   33  A    between atoms: _83  and  _84
REMARK   34  A    between atoms: _84  and  _85
REMARK   35  A    between atoms: _85  and  _86
REMARK   36  A    between atoms: _95  and  _97
REMARK   37  A    between atoms: _97  and  _98
REMARK   38  A    between atoms: _97  and  _100
REMARK   39  A    between atoms: _100  and  _101
REMARK   40  A    between atoms: _106  and  _107
REMARK   41  A    between atoms: _109  and  _111
REMARK   42  A    between atoms: _111  and  _112
REMARK   43  A    between atoms: _111  and  _114
REMARK   44  A    between atoms: _114  and  _115
REMARK   45  A    between atoms: _115  and  _116
REMARK   46  A    between atoms: _116  and  _117
REMARK   47  A    between atoms: _126  and  _128
REMARK   48  A    between atoms: _128  and  _129
REMARK   49  A    between atoms: _128  and  _131
REMARK   50  A    between atoms: _131  and  _132
REMARK   51  A    between atoms: _132  and  _133
REMARK   52  A    between atoms: _138  and  _140
REMARK   53  A    between atoms: _140  and  _141
REMARK   54  A    between atoms: _140  and  _143
REMARK   55  A    between atoms: _143  and  _144
REMARK   56  A    between atoms: _150  and  _152
REMARK   57  A    between atoms: _152  and  _153
REMARK   58  A    between atoms: _152  and  _155
REMARK   59  A    between atoms: _155  and  _156
REMARK   60  A    between atoms: _161  and  _163
REMARK   61  A    between atoms: _163  and  _164
REMARK   62  A    between atoms: _167  and  _169
REMARK   63  A    between atoms: _169  and  _170
REMARK   64  A    between atoms: _169  and  _172
REMARK   65  A    between atoms: _172  and  _173
REMARK   66  A    between atoms: _177  and  _178
REMARK   67  A    between atoms: _183  and  _185
REMARK   68  A    between atoms: _185  and  _186
REMARK   69  A    between atoms: _189  and  _191
REMARK   70  A    between atoms: _191  and  _192
REMARK   71  A    between atoms: _191  and  _194
REMARK   72  A    between atoms: _194  and  _195
REMARK   73  A    between atoms: _195  and  _196
REMARK   74  A    between atoms: _196  and  _197
REMARK   75  A    between atoms: _197  and  _198
REMARK   76  A    between atoms: _202  and  _204
REMARK   77  A    between atoms: _204  and  _205
REMARK   78  A    between atoms: _204  and  _207
REMARK   79  A    between atoms: _210  and  _212
REMARK   80  A    between atoms: _212  and  _213
REMARK   81  A    between atoms: _212  and  _215
REMARK   82  A    between atoms: _215  and  _216
REMARK   83  A    between atoms: _221  and  _222
REMARK   84  A    between atoms: _224  and  _226
REMARK   85  A    between atoms: _226  and  _227
REMARK   86  A    between atoms: _226  and  _229
REMARK   87  A    between atoms: _232  and  _234
REMARK   88  A    between atoms: _234  and  _235
REMARK   89  A    between atoms: _234  and  _237
REMARK   90  A    between atoms: _237  and  _238
REMARK   91  A    between atoms: _238  and  _239
REMARK   92  A    between atoms: _239  and  _240
REMARK   93  A    between atoms: _240  and  _241
REMARK   94  A    between atoms: _245  and  _247
REMARK   95  A    between atoms: _247  and  _248
REMARK   96  A    between atoms: _247  and  _250
REMARK   97  A    between atoms: _250  and  _251
REMARK   98  A    between atoms: _254  and  _256
REMARK   99  A    between atoms: _256  and  _257
REMARK  100  A    between atoms: _260  and  _262
REMARK  101  A    between atoms: _262  and  _263
REMARK  102  A    between atoms: _262  and  _265
REMARK  103  A    between atoms: _265  and  _266
REMARK  104  A    between atoms: _266  and  _267
REMARK  105  A    between atoms: _267  and  _268
REMARK                            x       y       z     vdW  Elec       q    Type
REMARK                         _______ _______ _______ _____ _____    ______ ____
ROOT
ATOM      1  O   HOH     1      10.153  21.902   8.729  0.00  0.00    +0.000 OA
ENDROOT
TORSDOF 0
REMARK  Name = ../refined-set-2016/1h6h/1h6h_pocket.pdb
REMARK  105 active torsions:
REMARK  status: ('A' for Active; 'I' for Inactive)
REMARK    1  A    between atoms: _1  and  _3
REMARK    2  A    between atoms: _3  and  _4
REMARK    3  A    between atoms: _3  and  _6
REMARK    4  A    between atoms: _6  and  _7
REMARK    5  A    between atoms: _10  and  _12
REMARK    6  A    between atoms: _12  and  _13
REMARK    7  A    between atoms: _12  and  _15
REMARK    8  A    between atoms: _15  and  _16
REMARK    9  A    between atoms: _18  and  _20
REMARK   10  A    between atoms: _20  and  _21
REMARK   11  A    between atoms: _20  and  _23
REMARK   12  A    between atoms: _23  and  _24
REMARK   13  A    between atoms: _29  and  _31
REMARK   14  A    between atoms: _31  and  _32
REMARK   15  A    between atoms: _31  and  _34
REMARK   16  A    between atoms: _34  and  _35
REMARK   17  A    between atoms: _41  and  _43
REMARK   18  A    between atoms: _43  and  _44
REMARK   19  A    between atoms: _43  and  _46
REMARK   20  A    between atoms: _49  and  _51
REMARK   21  A    between atoms: _51  and  _52
REMARK   22  A    between atoms: _51  and  _54
REMARK   23  A    between atoms: _54  and  _55
REMARK   24  A    between atoms: _61  and  _63
REMARK   25  A    between atoms: _63  and  _64
REMARK   26  A    between atoms: _63  and  _66
REMARK   27  A    between atoms: _66  and  _67
REMARK   28  A    between atoms: _67  and  _68
REMARK   29  A    between atoms: _68  and  _69
REMARK   30  A    between atoms: _78  and  _80
REMARK   31  A    between atoms: _80  and  _81
REMARK   32  A    between atoms: _80  and  _83
REMARK   33  A    between atoms: _83  and  _84
REMARK   34  A    between atoms: _84  and  _85
REMARK   35  A    between atoms: _85  and  _86
REMARK   36  A    between atoms: _95  and  _97
REMARK   37  A    between atoms: _97  and  _98
REMARK   38  A    between atoms: _97  and  _100
REMARK   39  A    between atoms: _100  and  _101
REMARK   40  A    between atoms: _106  and  _107
REMARK   41  A    between atoms: _109  and  _111
REMARK   42  A    between atoms: _111  and  _112
REMARK   43  A    between atoms: _111  and  _114
REMARK   44  A    between atoms: _114  and  _115
REMARK   45  A    between atoms: _115  and  _116
REMARK   46  A    between atoms: _116  and  _117
REMARK   47  A    between atoms: _126  and  _128
REMARK   48  A    between atoms: _128  and  _129
REMARK   49  A    between atoms: _128  and  _131
REMARK   50  A    between atoms: _131  and  _132
REMARK   51  A    between atoms: _132  and  _133
REMARK   52  A    between atoms: _138  and  _140
REMARK   53  A    between atoms: _140  and  _141
REMARK   54  A    between atoms: _140  and  _143
REMARK   55  A    between atoms: _143  and  _144
REMARK   56  A    between atoms: _150  and  _152
REMARK   57  A    between atoms: _152  and  _153
REMARK   58  A    between atoms: _152  and  _155
REMARK   59  A    between atoms: _155  and  _156
REMARK   60  A    between atoms: _161  and  _163
REMARK   61  A    between atoms: _163  and  _164
REMARK   62  A    between atoms: _167  and  _169
REMARK   63  A    between atoms: _169  and  _170
REMARK   64  A    between atoms: _169  and  _172
REMARK   65  A    between atoms: _172  and  _173
REMARK   66  A    between atoms: _177  and  _178
REMARK   67  A    between atoms: _183  and  _185
REMARK   68  A    between atoms: _185  and  _186
REMARK   69  A    between atoms: _189  and  _191
REMARK   70  A    between atoms: _191  and  _192
REMARK   71  A    between atoms: _191  and  _194
REMARK   72  A    between atoms: _194  and  _195
REMARK   73  A    between atoms: _195  and  _196
REMARK   74  A    between atoms: _196  and  _197
REMARK   75  A    between atoms: _197  and  _198
REMARK   76  A    between atoms: _202  and  _204
REMARK   77  A    between atoms: _204  and  _205
REMARK   78  A    between atoms: _204  and  _207
REMARK   79  A    between atoms: _210  and  _212
REMARK   80  A    between atoms: _212  and  _213
REMARK   81  A    between atoms: _212  and  _215
REMARK   82  A    between atoms: _215  and  _216
REMARK   83  A    between atoms: _221  and  _222
REMARK   84  A    between atoms: _224  and  _226
REMARK   85  A    between atoms: _226  and  _227
REMARK   86  A    between atoms: _226  and  _229
REMARK   87  A    between atoms: _232  and  _234
REMARK   88  A    between atoms: _234  and  _235
REMARK   89  A    between atoms: _234  and  _237
REMARK   90  A    between atoms: _237  and  _238
REMARK   91  A    between atoms: _238  and  _239
REMARK   92  A    between atoms: _239  and  _240
REMARK   93  A    between atoms: _240  and  _241
REMARK   94  A    between atoms: _245  and  _247
REMARK   95  A    between atoms: _247  and  _248
REMARK   96  A    between atoms: _247  and  _250
REMARK   97  A    between atoms: _250  and  _251
REMARK   98  A    between atoms: _254  and  _256
REMARK   99  A    between atoms: _256  and  _257
REMARK  100  A    between atoms: _260  and  _262
REMARK  101  A    between atoms: _262  and  _263
REMARK  102  A    between atoms: _262  and  _265
REMARK  103  A    between atoms: _265  and  _266
REMARK  104  A    between atoms: _266  and  _267
REMARK  105  A    between atoms: _267  and  _268
REMARK                            x       y       z     vdW  Elec       q    Type
REMARK                         _______ _______ _______ _____ _____    ______ ____
ROOT
ATOM      1  O   HOH     1       9.593  15.835   9.856  0.00  0.00    +0.000 OA
ENDROOT
TORSDOF 0
REMARK  Name = ../refined-set-2016/1h6h/1h6h_pocket.pdb
REMARK  105 active torsions:
REMARK  status: ('A' for Active; 'I' for Inactive)
REMARK    1  A    between atoms: _1  and  _3
REMARK    2  A    between atoms: _3  and  _4
REMARK    3  A    between atoms: _3  and  _6
REMARK    4  A    between atoms: _6  and  _7
REMARK    5  A    between atoms: _10  and  _12
REMARK    6  A    between atoms: _12  and  _13
REMARK    7  A    between atoms: _12  and  _15
REMARK    8  A    between atoms: _15  and  _16
REMARK    9  A    between atoms: _18  and  _20
REMARK   10  A    between atoms: _20  and  _21
REMARK   11  A    between atoms: _20  and  _23
REMARK   12  A    between atoms: _23  and  _24
REMARK   13  A    between atoms: _29  and  _31
REMARK   14  A    between atoms: _31  and  _32
REMARK   15  A    between atoms: _31  and  _34
REMARK   16  A    between atoms: _34  and  _35
REMARK   17  A    between atoms: _41  and  _43
REMARK   18  A    between atoms: _43  and  _44
REMARK   19  A    between atoms: _43  and  _46
REMARK   20  A    between atoms: _49  and  _51
REMARK   21  A    between atoms: _51  and  _52
REMARK   22  A    between atoms: _51  and  _54
REMARK   23  A    between atoms: _54  and  _55
REMARK   24  A    between atoms: _61  and  _63
REMARK   25  A    between atoms: _63  and  _64
REMARK   26  A    between atoms: _63  and  _66
REMARK   27  A    between atoms: _66  and  _67
REMARK   28  A    between atoms: _67  and  _68
REMARK   29  A    between atoms: _68  and  _69
REMARK   30  A    between atoms: _78  and  _80
REMARK   31  A    between atoms: _80  and  _81
REMARK   32  A    between atoms: _80  and  _83
REMARK   33  A    between atoms: _83  and  _84
REMARK   34  A    between atoms: _84  and  _85
REMARK   35  A    between atoms: _85  and  _86
REMARK   36  A    between atoms: _95  and  _97
REMARK   37  A    between atoms: _97  and  _98
REMARK   38  A    between atoms: _97  and  _100
REMARK   39  A    between atoms: _100  and  _101
REMARK   40  A    between atoms: _106  and  _107
REMARK   41  A    between atoms: _109  and  _111
REMARK   42  A    between atoms: _111  and  _112
REMARK   43  A    between atoms: _111  and  _114
REMARK   44  A    between atoms: _114  and  _115
REMARK   45  A    between atoms: _115  and  _116
REMARK   46  A    between atoms: _116  and  _117
REMARK   47  A    between atoms: _126  and  _128
REMARK   48  A    between atoms: _128  and  _129
REMARK   49  A    between atoms: _128  and  _131
REMARK   50  A    between atoms: _131  and  _132
REMARK   51  A    between atoms: _132  and  _133
REMARK   52  A    between atoms: _138  and  _140
REMARK   53  A    between atoms: _140  and  _141
REMARK   54  A    between atoms: _140  and  _143
REMARK   55  A    between atoms: _143  and  _144
REMARK   56  A    between atoms: _150  and  _152
REMARK   57  A    between atoms: _152  and  _153
REMARK   58  A    between atoms: _152  and  _155
REMARK   59  A    between atoms: _155  and  _156
REMARK   60  A    between atoms: _161  and  _163
REMARK   61  A    between atoms: _163  and  _164
REMARK   62  A    between atoms: _167  and  _169
REMARK   63  A    between atoms: _169  and  _170
REMARK   64  A    between atoms: _169  and  _172
REMARK   65  A    between atoms: _172  and  _173
REMARK   66  A    between atoms: _177  and  _178
REMARK   67  A    between atoms: _183  and  _185
REMARK   68  A    between atoms: _185  and  _186
REMARK   69  A    between atoms: _189  and  _191
REMARK   70  A    between atoms: _191  and  _192
REMARK   71  A    between atoms: _191  and  _194
REMARK   72  A    between atoms: _194  and  _195
REMARK   73  A    between atoms: _195  and  _196
REMARK   74  A    between atoms: _196  and  _197
REMARK   75  A    between atoms: _197  and  _198
REMARK   76  A    between atoms: _202  and  _204
REMARK   77  A    between atoms: _204  and  _205
REMARK   78  A    between atoms: _204  and  _207
REMARK   79  A    between atoms: _210  and  _212
REMARK   80  A    between atoms: _212  and  _213
REMARK   81  A    between atoms: _212  and  _215
REMARK   82  A    between atoms: _215  and  _216
REMARK   83  A    between atoms: _221  and  _222
REMARK   84  A    between atoms: _224  and  _226
REMARK   85  A    between atoms: _226  and  _227
REMARK   86  A    between atoms: _226  and  _229
REMARK   87  A    between atoms: _232  and  _234
REMARK   88  A    between atoms: _234  and  _235
REMARK   89  A    between atoms: _234  and  _237
REMARK   90  A    between atoms: _237  and  _238
REMARK   91  A    between atoms: _238  and  _239
REMARK   92  A    between atoms: _239  and  _240
REMARK   93  A    between atoms: _240  and  _241
REMARK   94  A    between atoms: _245  and  _247
REMARK   95  A    between atoms: _247  and  _248
REMARK   96  A    between atoms: _247  and  _250
REMARK   97  A    between atoms: _250  and  _251
REMARK   98  A    between atoms: _254  and  _256
REMARK   99  A    between atoms: _256  and  _257
REMARK  100  A    between atoms: _260  and  _262
REMARK  101  A    between atoms: _262  and  _263
REMARK  102  A    between atoms: _262  and  _265
REMARK  103  A    between atoms: _265  and  _266
REMARK  104  A    between atoms: _266  and  _267
REMARK  105  A    between atoms: _267  and  _268
REMARK                            x       y       z     vdW  Elec       q    Type
REMARK                         _______ _______ _______ _____ _____    ______ ____
ROOT
ATOM      1  O   HOH     1      12.225  20.612   1.685  0.00  0.00    +0.000 OA
ENDROOT
TORSDOF 0
REMARK  Name = ../refined-set-2016/1h6h/1h6h_pocket.pdb
REMARK  105 active torsions:
REMARK  status: ('A' for Active; 'I' for Inactive)
REMARK    1  A    between atoms: _1  and  _3
REMARK    2  A    between atoms: _3  and  _4
REMARK    3  A    between atoms: _3  and  _6
REMARK    4  A    between atoms: _6  and  _7
REMARK    5  A    between atoms: _10  and  _12
REMARK    6  A    between atoms: _12  and  _13
REMARK    7  A    between atoms: _12  and  _15
REMARK    8  A    between atoms: _15  and  _16
REMARK    9  A    between atoms: _18  and  _20
REMARK   10  A    between atoms: _20  and  _21
REMARK   11  A    between atoms: _20  and  _23
REMARK   12  A    between atoms: _23  and  _24
REMARK   13  A    between atoms: _29  and  _31
REMARK   14  A    between atoms: _31  and  _32
REMARK   15  A    between atoms: _31  and  _34
REMARK   16  A    between atoms: _34  and  _35
REMARK   17  A    between atoms: _41  and  _43
REMARK   18  A    between atoms: _43  and  _44
REMARK   19  A    between atoms: _43  and  _46
REMARK   20  A    between atoms: _49  and  _51
REMARK   21  A    between atoms: _51  and  _52
REMARK   22  A    between atoms: _51  and  _54
REMARK   23  A    between atoms: _54  and  _55
REMARK   24  A    between atoms: _61  and  _63
REMARK   25  A    between atoms: _63  and  _64
REMARK   26  A    between atoms: _63  and  _66
REMARK   27  A    between atoms: _66  and  _67
REMARK   28  A    between atoms: _67  and  _68
REMARK   29  A    between atoms: _68  and  _69
REMARK   30  A    between atoms: _78  and  _80
REMARK   31  A    between atoms: _80  and  _81
REMARK   32  A    between atoms: _80  and  _83
REMARK   33  A    between atoms: _83  and  _84
REMARK   34  A    between atoms: _84  and  _85
REMARK   35  A    between atoms: _85  and  _86
REMARK   36  A    between atoms: _95  and  _97
REMARK   37  A    between atoms: _97  and  _98
REMARK   38  A    between atoms: _97  and  _100
REMARK   39  A    between atoms: _100  and  _101
REMARK   40  A    between atoms: _106  and  _107
REMARK   41  A    between atoms: _109  and  _111
REMARK   42  A    between atoms: _111  and  _112
REMARK   43  A    between atoms: _111  and  _114
REMARK   44  A    between atoms: _114  and  _115
REMARK   45  A    between atoms: _115  and  _116
REMARK   46  A    between atoms: _116  and  _117
REMARK   47  A    between atoms: _126  and  _128
REMARK   48  A    between atoms: _128  and  _129
REMARK   49  A    between atoms: _128  and  _131
REMARK   50  A    between atoms: _131  and  _132
REMARK   51  A    between atoms: _132  and  _133
REMARK   52  A    between atoms: _138  and  _140
REMARK   53  A    between atoms: _140  and  _141
REMARK   54  A    between atoms: _140  and  _143
REMARK   55  A    between atoms: _143  and  _144
REMARK   56  A    between atoms: _150  and  _152
REMARK   57  A    between atoms: _152  and  _153
REMARK   58  A    between atoms: _152  and  _155
REMARK   59  A    between atoms: _155  and  _156
REMARK   60  A    between atoms: _161  and  _163
REMARK   61  A    between atoms: _163  and  _164
REMARK   62  A    between atoms: _167  and  _169
REMARK   63  A    between atoms: _169  and  _170
REMARK   64  A    between atoms: _169  and  _172
REMARK   65  A    between atoms: _172  and  _173
REMARK   66  A    between atoms: _177  and  _178
REMARK   67  A    between atoms: _183  and  _185
REMARK   68  A    between atoms: _185  and  _186
REMARK   69  A    between atoms: _189  and  _191
REMARK   70  A    between atoms: _191  and  _192
REMARK   71  A    between atoms: _191  and  _194
REMARK   72  A    between atoms: _194  and  _195
REMARK   73  A    between atoms: _195  and  _196
REMARK   74  A    between atoms: _196  and  _197
REMARK   75  A    between atoms: _197  and  _198
REMARK   76  A    between atoms: _202  and  _204
REMARK   77  A    between atoms: _204  and  _205
REMARK   78  A    between atoms: _204  and  _207
REMARK   79  A    between atoms: _210  and  _212
REMARK   80  A    between atoms: _212  and  _213
REMARK   81  A    between atoms: _212  and  _215
REMARK   82  A    between atoms: _215  and  _216
REMARK   83  A    between atoms: _221  and  _222
REMARK   84  A    between atoms: _224  and  _226
REMARK   85  A    between atoms: _226  and  _227
REMARK   86  A    between atoms: _226  and  _229
REMARK   87  A    between atoms: _232  and  _234
REMARK   88  A    between atoms: _234  and  _235
REMARK   89  A    between atoms: _234  and  _237
REMARK   90  A    between atoms: _237  and  _238
REMARK   91  A    between atoms: _238  and  _239
REMARK   92  A    between atoms: _239  and  _240
REMARK   93  A    between atoms: _240  and  _241
REMARK   94  A    between atoms: _245  and  _247
REMARK   95  A    between atoms: _247  and  _248
REMARK   96  A    between atoms: _247  and  _250
REMARK   97  A    between atoms: _250  and  _251
REMARK   98  A    between atoms: _254  and  _256
REMARK   99  A    between atoms: _256  and  _257
REMARK  100  A    between atoms: _260  and  _262
REMARK  101  A    between atoms: _262  and  _263
REMARK  102  A    between atoms: _262  and  _265
REMARK  103  A    between atoms: _265  and  _266
REMARK  104  A    between atoms: _266  and  _267
REMARK  105  A    between atoms: _267  and  _268
REMARK                            x       y       z     vdW  Elec       q    Type
REMARK                         _______ _______ _______ _____ _____    ______ ____
ROOT
ATOM      1  O   HOH     1      13.961  21.381   7.740  0.00  0.00    +0.000 OA
ENDROOT
TORSDOF 0
REMARK  Name = ../refined-set-2016/1h6h/1h6h_pocket.pdb
REMARK  105 active torsions:
REMARK  status: ('A' for Active; 'I' for Inactive)
REMARK    1  A    between atoms: _1  and  _3
REMARK    2  A    between atoms: _3  and  _4
REMARK    3  A    between atoms: _3  and  _6
REMARK    4  A    between atoms: _6  and  _7
REMARK    5  A    between atoms: _10  and  _12
REMARK    6  A    between atoms: _12  and  _13
REMARK    7  A    between atoms: _12  and  _15
REMARK    8  A    between atoms: _15  and  _16
REMARK    9  A    between atoms: _18  and  _20
REMARK   10  A    between atoms: _20  and  _21
REMARK   11  A    between atoms: _20  and  _23
REMARK   12  A    between atoms: _23  and  _24
REMARK   13  A    between atoms: _29  and  _31
REMARK   14  A    between atoms: _31  and  _32
REMARK   15  A    between atoms: _31  and  _34
REMARK   16  A    between atoms: _34  and  _35
REMARK   17  A    between atoms: _41  and  _43
REMARK   18  A    between atoms: _43  and  _44
REMARK   19  A    between atoms: _43  and  _46
REMARK   20  A    between atoms: _49  and  _51
REMARK   21  A    between atoms: _51  and  _52
REMARK   22  A    between atoms: _51  and  _54
REMARK   23  A    between atoms: _54  and  _55
REMARK   24  A    between atoms: _61  and  _63
REMARK   25  A    between atoms: _63  and  _64
REMARK   26  A    between atoms: _63  and  _66
REMARK   27  A    between atoms: _66  and  _67
REMARK   28  A    between atoms: _67  and  _68
REMARK   29  A    between atoms: _68  and  _69
REMARK   30  A    between atoms: _78  and  _80
REMARK   31  A    between atoms: _80  and  _81
REMARK   32  A    between atoms: _80  and  _83
REMARK   33  A    between atoms: _83  and  _84
REMARK   34  A    between atoms: _84  and  _85
REMARK   35  A    between atoms: _85  and  _86
REMARK   36  A    between atoms: _95  and  _97
REMARK   37  A    between atoms: _97  and  _98
REMARK   38  A    between atoms: _97  and  _100
REMARK   39  A    between atoms: _100  and  _101
REMARK   40  A    between atoms: _106  and  _107
REMARK   41  A    between atoms: _109  and  _111
REMARK   42  A    between atoms: _111  and  _112
REMARK   43  A    between atoms: _111  and  _114
REMARK   44  A    between atoms: _114  and  _115
REMARK   45  A    between atoms: _115  and  _116
REMARK   46  A    between atoms: _116  and  _117
REMARK   47  A    between atoms: _126  and  _128
REMARK   48  A    between atoms: _128  and  _129
REMARK   49  A    between atoms: _128  and  _131
REMARK   50  A    between atoms: _131  and  _132
REMARK   51  A    between atoms: _132  and  _133
REMARK   52  A    between atoms: _138  and  _140
REMARK   53  A    between atoms: _140  and  _141
REMARK   54  A    between atoms: _140  and  _143
REMARK   55  A    between atoms: _143  and  _144
REMARK   56  A    between atoms: _150  and  _152
REMARK   57  A    between atoms: _152  and  _153
REMARK   58  A    between atoms: _152  and  _155
REMARK   59  A    between atoms: _155  and  _156
REMARK   60  A    between atoms: _161  and  _163
REMARK   61  A    between atoms: _163  and  _164
REMARK   62  A    between atoms: _167  and  _169
REMARK   63  A    between atoms: _169  and  _170
REMARK   64  A    between atoms: _169  and  _172
REMARK   65  A    between atoms: _172  and  _173
REMARK   66  A    between atoms: _177  and  _178
REMARK   67  A    between atoms: _183  and  _185
REMARK   68  A    between atoms: _185  and  _186
REMARK   69  A    between atoms: _189  and  _191
REMARK   70  A    between atoms: _191  and  _192
REMARK   71  A    between atoms: _191  and  _194
REMARK   72  A    between atoms: _194  and  _195
REMARK   73  A    between atoms: _195  and  _196
REMARK   74  A    between atoms: _196  and  _197
REMARK   75  A    between atoms: _197  and  _198
REMARK   76  A    between atoms: _202  and  _204
REMARK   77  A    between atoms: _204  and  _205
REMARK   78  A    between atoms: _204  and  _207
REMARK   79  A    between atoms: _210  and  _212
REMARK   80  A    between atoms: _212  and  _213
REMARK   81  A    between atoms: _212  and  _215
REMARK   82  A    between atoms: _215  and  _216
REMARK   83  A    between atoms: _221  and  _222
REMARK   84  A    between atoms: _224  and  _226
REMARK   85  A    between atoms: _226  and  _227
REMARK   86  A    between atoms: _226  and  _229
REMARK   87  A    between atoms: _232  and  _234
REMARK   88  A    between atoms: _234  and  _235
REMARK   89  A    between atoms: _234  and  _237
REMARK   90  A    between atoms: _237  and  _238
REMARK   91  A    between atoms: _238  and  _239
REMARK   92  A    between atoms: _239  and  _240
REMARK   93  A    between atoms: _240  and  _241
REMARK   94  A    between atoms: _245  and  _247
REMARK   95  A    between atoms: _247  and  _248
REMARK   96  A    between atoms: _247  and  _250
REMARK   97  A    between atoms: _250  and  _251
REMARK   98  A    between atoms: _254  and  _256
REMARK   99  A    between atoms: _256  and  _257
REMARK  100  A    between atoms: _260  and  _262
REMARK  101  A    between atoms: _262  and  _263
REMARK  102  A    between atoms: _262  and  _265
REMARK  103  A    between atoms: _265  and  _266
REMARK  104  A    between atoms: _266  and  _267
REMARK  105  A    between atoms: _267  and  _268
REMARK                            x       y       z     vdW  Elec       q    Type
REMARK                         _______ _______ _______ _____ _____    ______ ____
ROOT
ATOM      1  O   HOH     1      12.951  12.386   6.296  0.00  0.00    +0.000 OA
ENDROOT
TORSDOF 0
REMARK  Name = ../refined-set-2016/1h6h/1h6h_pocket.pdb
REMARK  105 active torsions:
REMARK  status: ('A' for Active; 'I' for Inactive)
REMARK    1  A    between atoms: _1  and  _3
REMARK    2  A    between atoms: _3  and  _4
REMARK    3  A    between atoms: _3  and  _6
REMARK    4  A    between atoms: _6  and  _7
REMARK    5  A    between atoms: _10  and  _12
REMARK    6  A    between atoms: _12  and  _13
REMARK    7  A    between atoms: _12  and  _15
REMARK    8  A    between atoms: _15  and  _16
REMARK    9  A    between atoms: _18  and  _20
REMARK   10  A    between atoms: _20  and  _21
REMARK   11  A    between atoms: _20  and  _23
REMARK   12  A    between atoms: _23  and  _24
REMARK   13  A    between atoms: _29  and  _31
REMARK   14  A    between atoms: _31  and  _32
REMARK   15  A    between atoms: _31  and  _34
REMARK   16  A    between atoms: _34  and  _35
REMARK   17  A    between atoms: _41  and  _43
REMARK   18  A    between atoms: _43  and  _44
REMARK   19  A    between atoms: _43  and  _46
REMARK   20  A    between atoms: _49  and  _51
REMARK   21  A    between atoms: _51  and  _52
REMARK   22  A    between atoms: _51  and  _54
REMARK   23  A    between atoms: _54  and  _55
REMARK   24  A    between atoms: _61  and  _63
REMARK   25  A    between atoms: _63  and  _64
REMARK   26  A    between atoms: _63  and  _66
REMARK   27  A    between atoms: _66  and  _67
REMARK   28  A    between atoms: _67  and  _68
REMARK   29  A    between atoms: _68  and  _69
REMARK   30  A    between atoms: _78  and  _80
REMARK   31  A    between atoms: _80  and  _81
REMARK   32  A    between atoms: _80  and  _83
REMARK   33  A    between atoms: _83  and  _84
REMARK   34  A    between atoms: _84  and  _85
REMARK   35  A    between atoms: _85  and  _86
REMARK   36  A    between atoms: _95  and  _97
REMARK   37  A    between atoms: _97  and  _98
REMARK   38  A    between atoms: _97  and  _100
REMARK   39  A    between atoms: _100  and  _101
REMARK   40  A    between atoms: _106  and  _107
REMARK   41  A    between atoms: _109  and  _111
REMARK   42  A    between atoms: _111  and  _112
REMARK   43  A    between atoms: _111  and  _114
REMARK   44  A    between atoms: _114  and  _115
REMARK   45  A    between atoms: _115  and  _116
REMARK   46  A    between atoms: _116  and  _117
REMARK   47  A    between atoms: _126  and  _128
REMARK   48  A    between atoms: _128  and  _129
REMARK   49  A    between atoms: _128  and  _131
REMARK   50  A    between atoms: _131  and  _132
REMARK   51  A    between atoms: _132  and  _133
REMARK   52  A    between atoms: _138  and  _140
REMARK   53  A    between atoms: _140  and  _141
REMARK   54  A    between atoms: _140  and  _143
REMARK   55  A    between atoms: _143  and  _144
REMARK   56  A    between atoms: _150  and  _152
REMARK   57  A    between atoms: _152  and  _153
REMARK   58  A    between atoms: _152  and  _155
REMARK   59  A    between atoms: _155  and  _156
REMARK   60  A    between atoms: _161  and  _163
REMARK   61  A    between atoms: _163  and  _164
REMARK   62  A    between atoms: _167  and  _169
REMARK   63  A    between atoms: _169  and  _170
REMARK   64  A    between atoms: _169  and  _172
REMARK   65  A    between atoms: _172  and  _173
REMARK   66  A    between atoms: _177  and  _178
REMARK   67  A    between atoms: _183  and  _185
REMARK   68  A    between atoms: _185  and  _186
REMARK   69  A    between atoms: _189  and  _191
REMARK   70  A    between atoms: _191  and  _192
REMARK   71  A    between atoms: _191  and  _194
REMARK   72  A    between atoms: _194  and  _195
REMARK   73  A    between atoms: _195  and  _196
REMARK   74  A    between atoms: _196  and  _197
REMARK   75  A    between atoms: _197  and  _198
REMARK   76  A    between atoms: _202  and  _204
REMARK   77  A    between atoms: _204  and  _205
REMARK   78  A    between atoms: _204  and  _207
REMARK   79  A    between atoms: _210  and  _212
REMARK   80  A    between atoms: _212  and  _213
REMARK   81  A    between atoms: _212  and  _215
REMARK   82  A    between atoms: _215  and  _216
REMARK   83  A    between atoms: _221  and  _222
REMARK   84  A    between atoms: _224  and  _226
REMARK   85  A    between atoms: _226  and  _227
REMARK   86  A    between atoms: _226  and  _229
REMARK   87  A    between atoms: _232  and  _234
REMARK   88  A    between atoms: _234  and  _235
REMARK   89  A    between atoms: _234  and  _237
REMARK   90  A    between atoms: _237  and  _238
REMARK   91  A    between atoms: _238  and  _239
REMARK   92  A    between atoms: _239  and  _240
REMARK   93  A    between atoms: _240  and  _241
REMARK   94  A    between atoms: _245  and  _247
REMARK   95  A    between atoms: _247  and  _248
REMARK   96  A    between atoms: _247  and  _250
REMARK   97  A    between atoms: _250  and  _251
REMARK   98  A    between atoms: _254  and  _256
REMARK   99  A    between atoms: _256  and  _257
REMARK  100  A    between atoms: _260  and  _262
REMARK  101  A    between atoms: _262  and  _263
REMARK  102  A    between atoms: _262  and  _265
REMARK  103  A    between atoms: _265  and  _266
REMARK  104  A    between atoms: _266  and  _267
REMARK  105  A    between atoms: _267  and  _268
REMARK                            x       y       z     vdW  Elec       q    Type
REMARK                         _______ _______ _______ _____ _____    ______ ____
ROOT
ATOM      1  O   HOH     1      15.151  24.431   5.829  0.00  0.00    +0.000 OA
ENDROOT
TORSDOF 0
REMARK  Name = ../refined-set-2016/1h6h/1h6h_pocket.pdb
REMARK  105 active torsions:
REMARK  status: ('A' for Active; 'I' for Inactive)
REMARK    1  A    between atoms: _1  and  _3
REMARK    2  A    between atoms: _3  and  _4
REMARK    3  A    between atoms: _3  and  _6
REMARK    4  A    between atoms: _6  and  _7
REMARK    5  A    between atoms: _10  and  _12
REMARK    6  A    between atoms: _12  and  _13
REMARK    7  A    between atoms: _12  and  _15
REMARK    8  A    between atoms: _15  and  _16
REMARK    9  A    between atoms: _18  and  _20
REMARK   10  A    between atoms: _20  and  _21
REMARK   11  A    between atoms: _20  and  _23
REMARK   12  A    between atoms: _23  and  _24
REMARK   13  A    between atoms: _29  and  _31
REMARK   14  A    between atoms: _31  and  _32
REMARK   15  A    between atoms: _31  and  _34
REMARK   16  A    between atoms: _34  and  _35
REMARK   17  A    between atoms: _41  and  _43
REMARK   18  A    between atoms: _43  and  _44
REMARK   19  A    between atoms: _43  and  _46
REMARK   20  A    between atoms: _49  and  _51
REMARK   21  A    between atoms: _51  and  _52
REMARK   22  A    between atoms: _51  and  _54
REMARK   23  A    between atoms: _54  and  _55
REMARK   24  A    between atoms: _61  and  _63
REMARK   25  A    between atoms: _63  and  _64
REMARK   26  A    between atoms: _63  and  _66
REMARK   27  A    between atoms: _66  and  _67
REMARK   28  A    between atoms: _67  and  _68
REMARK   29  A    between atoms: _68  and  _69
REMARK   30  A    between atoms: _78  and  _80
REMARK   31  A    between atoms: _80  and  _81
REMARK   32  A    between atoms: _80  and  _83
REMARK   33  A    between atoms: _83  and  _84
REMARK   34  A    between atoms: _84  and  _85
REMARK   35  A    between atoms: _85  and  _86
REMARK   36  A    between atoms: _95  and  _97
REMARK   37  A    between atoms: _97  and  _98
REMARK   38  A    between atoms: _97  and  _100
REMARK   39  A    between atoms: _100  and  _101
REMARK   40  A    between atoms: _106  and  _107
REMARK   41  A    between atoms: _109  and  _111
REMARK   42  A    between atoms: _111  and  _112
REMARK   43  A    between atoms: _111  and  _114
REMARK   44  A    between atoms: _114  and  _115
REMARK   45  A    between atoms: _115  and  _116
REMARK   46  A    between atoms: _116  and  _117
REMARK   47  A    between atoms: _126  and  _128
REMARK   48  A    between atoms: _128  and  _129
REMARK   49  A    between atoms: _128  and  _131
REMARK   50  A    between atoms: _131  and  _132
REMARK   51  A    between atoms: _132  and  _133
REMARK   52  A    between atoms: _138  and  _140
REMARK   53  A    between atoms: _140  and  _141
REMARK   54  A    between atoms: _140  and  _143
REMARK   55  A    between atoms: _143  and  _144
REMARK   56  A    between atoms: _150  and  _152
REMARK   57  A    between atoms: _152  and  _153
REMARK   58  A    between atoms: _152  and  _155
REMARK   59  A    between atoms: _155  and  _156
REMARK   60  A    between atoms: _161  and  _163
REMARK   61  A    between atoms: _163  and  _164
REMARK   62  A    between atoms: _167  and  _169
REMARK   63  A    between atoms: _169  and  _170
REMARK   64  A    between atoms: _169  and  _172
REMARK   65  A    between atoms: _172  and  _173
REMARK   66  A    between atoms: _177  and  _178
REMARK   67  A    between atoms: _183  and  _185
REMARK   68  A    between atoms: _185  and  _186
REMARK   69  A    between atoms: _189  and  _191
REMARK   70  A    between atoms: _191  and  _192
REMARK   71  A    between atoms: _191  and  _194
REMARK   72  A    between atoms: _194  and  _195
REMARK   73  A    between atoms: _195  and  _196
REMARK   74  A    between atoms: _196  and  _197
REMARK   75  A    between atoms: _197  and  _198
REMARK   76  A    between atoms: _202  and  _204
REMARK   77  A    between atoms: _204  and  _205
REMARK   78  A    between atoms: _204  and  _207
REMARK   79  A    between atoms: _210  and  _212
REMARK   80  A    between atoms: _212  and  _213
REMARK   81  A    between atoms: _212  and  _215
REMARK   82  A    between atoms: _215  and  _216
REMARK   83  A    between atoms: _221  and  _222
REMARK   84  A    between atoms: _224  and  _226
REMARK   85  A    between atoms: _226  and  _227
REMARK   86  A    between atoms: _226  and  _229
REMARK   87  A    between atoms: _232  and  _234
REMARK   88  A    between atoms: _234  and  _235
REMARK   89  A    between atoms: _234  and  _237
REMARK   90  A    between atoms: _237  and  _238
REMARK   91  A    between atoms: _238  and  _239
REMARK   92  A    between atoms: _239  and  _240
REMARK   93  A    between atoms: _240  and  _241
REMARK   94  A    between atoms: _245  and  _247
REMARK   95  A    between atoms: _247  and  _248
REMARK   96  A    between atoms: _247  and  _250
REMARK   97  A    between atoms: _250  and  _251
REMARK   98  A    between atoms: _254  and  _256
REMARK   99  A    between atoms: _256  and  _257
REMARK  100  A    between atoms: _260  and  _262
REMARK  101  A    between atoms: _262  and  _263
REMARK  102  A    between atoms: _262  and  _265
REMARK  103  A    between atoms: _265  and  _266
REMARK  104  A    between atoms: _266  and  _267
REMARK  105  A    between atoms: _267  and  _268
REMARK                            x       y       z     vdW  Elec       q    Type
REMARK                         _______ _______ _______ _____ _____    ______ ____
ROOT
ATOM      1  O   HOH     1       7.581  28.980  10.607  0.00  0.00    +0.000 OA
ENDROOT
TORSDOF 0
