REMARK  Name = ../refined-set-2016/1hpv/1hpv_pocket.pdb
REMARK  214 active torsions:
REMARK  status: ('A' for Active; 'I' for Inactive)
REMARK    1  A    between atoms: _1  and  _3
REMARK    2  A    between atoms: _3  and  _4
REMARK    3  A    between atoms: _3  and  _6
REMARK    4  A    between atoms: _6  and  _7
REMARK    5  A    between atoms: _7  and  _8
REMARK    6  A    between atoms: _8  and  _9
REMARK    7  A    between atoms: _18  and  _20
REMARK    8  A    between atoms: _20  and  _21
REMARK    9  A    between atoms: _20  and  _23
REMARK   10  A    between atoms: _23  and  _24
REMARK   11  A    between atoms: _27  and  _29
REMARK   12  A    between atoms: _29  and  _30
REMARK   13  A    between atoms: _29  and  _32
REMARK   14  A    between atoms: _32  and  _33
REMARK   15  A    between atoms: _36  and  _38
REMARK   16  A    between atoms: _38  and  _39
REMARK   17  A    between atoms: _38  and  _41
REMARK   18  A    between atoms: _41  and  _42
REMARK   19  A    between atoms: _45  and  _47
REMARK   20  A    between atoms: _47  and  _48
REMARK   21  A    between atoms: _47  and  _50
REMARK   22  A    between atoms: _50  and  _51
REMARK   23  A    between atoms: _54  and  _56
REMARK   24  A    between atoms: _56  and  _57
REMARK   25  A    between atoms: _59  and  _61
REMARK   26  A    between atoms: _61  and  _62
REMARK   27  A    between atoms: _65  and  _67
REMARK   28  A    between atoms: _67  and  _68
REMARK   29  A    between atoms: _67  and  _70
REMARK   30  A    between atoms: _70  and  _71
REMARK   31  A    between atoms: _74  and  _76
REMARK   32  A    between atoms: _76  and  _77
REMARK   33  A    between atoms: _76  and  _79
REMARK   34  A    between atoms: _79  and  _80
REMARK   35  A    between atoms: _83  and  _85
REMARK   36  A    between atoms: _85  and  _86
REMARK   37  A    between atoms: _85  and  _88
REMARK   38  A    between atoms: _88  and  _89
REMARK   39  A    between atoms: _92  and  _94
REMARK   40  A    between atoms: _94  and  _95
REMARK   41  A    between atoms: _94  and  _97
REMARK   42  A    between atoms: _100  and  _102
REMARK   43  A    between atoms: _102  and  _103
REMARK   44  A    between atoms: _102  and  _105
REMARK   45  A    between atoms: _105  and  _106
REMARK   46  A    between atoms: _106  and  _107
REMARK   47  A    between atoms: _107  and  _108
REMARK   48  A    between atoms: _108  and  _109
REMARK   49  A    between atoms: _113  and  _115
REMARK   50  A    between atoms: _115  and  _116
REMARK   51  A    between atoms: _115  and  _118
REMARK   52  A    between atoms: _118  and  _119
REMARK   53  A    between atoms: _119  and  _120
REMARK   54  A    between atoms: _122  and  _124
REMARK   55  A    between atoms: _124  and  _125
REMARK   56  A    between atoms: _124  and  _127
REMARK   57  A    between atoms: _127  and  _128
REMARK   58  A    between atoms: _131  and  _133
REMARK   59  A    between atoms: _133  and  _134
REMARK   60  A    between atoms: _136  and  _138
REMARK   61  A    between atoms: _138  and  _139
REMARK   62  A    between atoms: _141  and  _143
REMARK   63  A    between atoms: _143  and  _144
REMARK   64  A    between atoms: _143  and  _146
REMARK   65  A    between atoms: _146  and  _147
REMARK   66  A    between atoms: _150  and  _152
REMARK   67  A    between atoms: _152  and  _153
REMARK   68  A    between atoms: _155  and  _157
REMARK   69  A    between atoms: _157  and  _158
REMARK   70  A    between atoms: _160  and  _162
REMARK   71  A    between atoms: _162  and  _163
REMARK   72  A    between atoms: _162  and  _165
REMARK   73  A    between atoms: _165  and  _166
REMARK   74  A    between atoms: _169  and  _171
REMARK   75  A    between atoms: _171  and  _172
REMARK   76  A    between atoms: _171  and  _174
REMARK   77  A    between atoms: _174  and  _175
REMARK   78  A    between atoms: _178  and  _180
REMARK   79  A    between atoms: _180  and  _181
REMARK   80  A    between atoms: _180  and  _183
REMARK   81  A    between atoms: _183  and  _184
REMARK   82  A    between atoms: _188  and  _189
REMARK   83  A    between atoms: _194  and  _196
REMARK   84  A    between atoms: _196  and  _197
REMARK   85  A    between atoms: _196  and  _199
REMARK   86  A    between atoms: _202  and  _204
REMARK   87  A    between atoms: _204  and  _205
REMARK   88  A    between atoms: _204  and  _207
REMARK   89  A    between atoms: _207  and  _208
REMARK   90  A    between atoms: _213  and  _215
REMARK   91  A    between atoms: _215  and  _216
REMARK   92  A    between atoms: _215  and  _218
REMARK   93  A    between atoms: _218  and  _219
REMARK   94  A    between atoms: _222  and  _224
REMARK   95  A    between atoms: _224  and  _225
REMARK   96  A    between atoms: _224  and  _227
REMARK   97  A    between atoms: _227  and  _228
REMARK   98  A    between atoms: _231  and  _233
REMARK   99  A    between atoms: _233  and  _234
REMARK  100  A    between atoms: _236  and  _238
REMARK  101  A    between atoms: _238  and  _239
REMARK  102  A    between atoms: _238  and  _241
REMARK  103  A    between atoms: _241  and  _242
REMARK  104  A    between atoms: _242  and  _243
REMARK  105  A    between atoms: _243  and  _244
REMARK  106  A    between atoms: _253  and  _255
REMARK  107  A    between atoms: _255  and  _256
REMARK  108  A    between atoms: _255  and  _258
REMARK  109  A    between atoms: _258  and  _259
REMARK  110  A    between atoms: _264  and  _266
REMARK  111  A    between atoms: _266  and  _267
REMARK  112  A    between atoms: _266  and  _269
REMARK  113  A    between atoms: _269  and  _270
REMARK  114  A    between atoms: _270  and  _271
REMARK  115  A    between atoms: _271  and  _272
REMARK  116  A    between atoms: _281  and  _283
REMARK  117  A    between atoms: _283  and  _284
REMARK  118  A    between atoms: _283  and  _286
REMARK  119  A    between atoms: _286  and  _287
REMARK  120  A    between atoms: _290  and  _292
REMARK  121  A    between atoms: _292  and  _293
REMARK  122  A    between atoms: _292  and  _295
REMARK  123  A    between atoms: _295  and  _296
REMARK  124  A    between atoms: _299  and  _301
REMARK  125  A    between atoms: _301  and  _302
REMARK  126  A    between atoms: _301  and  _304
REMARK  127  A    between atoms: _304  and  _305
REMARK  128  A    between atoms: _308  and  _310
REMARK  129  A    between atoms: _310  and  _311
REMARK  130  A    between atoms: _310  and  _313
REMARK  131  A    between atoms: _313  and  _314
REMARK  132  A    between atoms: _317  and  _319
REMARK  133  A    between atoms: _319  and  _320
REMARK  134  A    between atoms: _322  and  _324
REMARK  135  A    between atoms: _324  and  _325
REMARK  136  A    between atoms: _328  and  _330
REMARK  137  A    between atoms: _330  and  _331
REMARK  138  A    between atoms: _330  and  _333
REMARK  139  A    between atoms: _333  and  _334
REMARK  140  A    between atoms: _337  and  _339
REMARK  141  A    between atoms: _339  and  _340
REMARK  142  A    between atoms: _339  and  _342
REMARK  143  A    between atoms: _342  and  _343
REMARK  144  A    between atoms: _346  and  _348
REMARK  145  A    between atoms: _348  and  _349
REMARK  146  A    between atoms: _348  and  _351
REMARK  147  A    between atoms: _351  and  _352
REMARK  148  A    between atoms: _355  and  _357
REMARK  149  A    between atoms: _357  and  _358
REMARK  150  A    between atoms: _357  and  _360
REMARK  151  A    between atoms: _363  and  _365
REMARK  152  A    between atoms: _365  and  _366
REMARK  153  A    between atoms: _365  and  _368
REMARK  154  A    between atoms: _368  and  _369
REMARK  155  A    between atoms: _369  and  _370
REMARK  156  A    between atoms: _370  and  _371
REMARK  157  A    between atoms: _371  and  _372
REMARK  158  A    between atoms: _376  and  _378
REMARK  159  A    between atoms: _378  and  _379
REMARK  160  A    between atoms: _378  and  _381
REMARK  161  A    between atoms: _381  and  _382
REMARK  162  A    between atoms: _385  and  _387
REMARK  163  A    between atoms: _387  and  _388
REMARK  164  A    between atoms: _390  and  _392
REMARK  165  A    between atoms: _392  and  _393
REMARK  166  A    between atoms: _395  and  _397
REMARK  167  A    between atoms: _397  and  _398
REMARK  168  A    between atoms: _397  and  _400
REMARK  169  A    between atoms: _400  and  _401
REMARK  170  A    between atoms: _404  and  _406
REMARK  171  A    between atoms: _406  and  _407
REMARK  172  A    between atoms: _409  and  _411
REMARK  173  A    between atoms: _411  and  _412
REMARK  174  A    between atoms: _414  and  _416
REMARK  175  A    between atoms: _416  and  _417
REMARK  176  A    between atoms: _416  and  _419
REMARK  177  A    between atoms: _419  and  _420
REMARK  178  A    between atoms: _423  and  _425
REMARK  179  A    between atoms: _425  and  _426
REMARK  180  A    between atoms: _425  and  _428
REMARK  181  A    between atoms: _428  and  _429
REMARK  182  A    between atoms: _433  and  _434
REMARK  183  A    between atoms: _439  and  _441
REMARK  184  A    between atoms: _441  and  _442
REMARK  185  A    between atoms: _441  and  _444
REMARK  186  A    between atoms: _444  and  _445
REMARK  187  A    between atoms: _449  and  _450
REMARK  188  A    between atoms: _455  and  _457
REMARK  189  A    between atoms: _457  and  _458
REMARK  190  A    between atoms: _457  and  _460
REMARK  191  A    between atoms: _463  and  _465
REMARK  192  A    between atoms: _465  and  _466
REMARK  193  A    between atoms: _465  and  _468
REMARK  194  A    between atoms: _468  and  _469
REMARK  195  A    between atoms: _474  and  _476
REMARK  196  A    between atoms: _476  and  _477
REMARK  197  A    between atoms: _476  and  _479
REMARK  198  A    between atoms: _479  and  _480
REMARK  199  A    between atoms: _483  and  _485
REMARK  200  A    between atoms: _485  and  _486
REMARK  201  A    between atoms: _485  and  _488
REMARK  202  A    between atoms: _488  and  _489
REMARK  203  A    between atoms: _492  and  _494
REMARK  204  A    between atoms: _494  and  _495
REMARK  205  A    between atoms: _497  and  _499
REMARK  206  A    between atoms: _499  and  _500
REMARK  207  A    between atoms: _499  and  _502
REMARK  208  A    between atoms: _502  and  _503
REMARK  209  A    between atoms: _503  and  _504
REMARK  210  A    between atoms: _504  and  _505
REMARK  211  A    between atoms: _514  and  _516
REMARK  212  A    between atoms: _516  and  _517
REMARK  213  A    between atoms: _516  and  _519
REMARK  214  A    between atoms: _519  and  _520
REMARK                            x       y       z     vdW  Elec       q    Type
REMARK                         _______ _______ _______ _____ _____    ______ ____
ROOT
ATOM      1  NE  ARG A   1       4.398  23.672  13.989  0.00  0.00    -0.265 N 
ATOM      2  HE  ARG A   1       5.266  23.391  14.489  0.00  0.00    +0.259 HD
ATOM      3  CZ  ARG A   1       3.504  22.724  13.718  0.00  0.00    +0.342 C 
ATOM      4  NH2 ARG A   1       3.745  21.474  14.083  0.00  0.00    -0.292 N 
ATOM      5 HH21 ARG A   1       4.629  21.238  14.578  0.00  0.00    +0.255 HD
ATOM      6 HH22 ARG A   1       3.051  20.728  13.874  0.00  0.00    +0.255 HD
ATOM      7  NH1 ARG A   1       2.362  23.019  13.112  0.00  0.00    -0.292 N 
ATOM      8 HH11 ARG A   1       1.673  22.268  12.907  0.00  0.00    +0.255 HD
ATOM      9 HH12 ARG A   1       2.155  24.002  12.842  0.00  0.00    +0.255 HD
ENDROOT
BRANCH   1  10
ATOM     10  CD  ARG A   1       4.243  25.079  13.632  0.00  0.00    +0.174 C 
BRANCH  10  11
ATOM     11  CG  ARG A   1       5.348  25.943  14.209  0.00  0.00    +0.045 C 
BRANCH  11  12
ATOM     12  CB  ARG A   1       5.323  27.304  13.564  0.00  0.00    +0.029 C 
BRANCH  12  13
ATOM     13  CA  ARG A   1       6.524  28.182  13.907  0.00  0.00    +0.133 C 
BRANCH  13  14
ATOM     14  N   ARG A   1       6.339  28.858  15.180  0.00  0.00    -0.239 NA
ATOM     15  H   ARG A   1       5.493  28.659  15.752  0.00  0.00    +0.142 HD
ENDBRANCH  13  14
BRANCH  13  16
ATOM     16  C   ARG A   1       6.700  29.243  12.832  0.00  0.00    +0.224 C 
ATOM     17  O   ARG A   1       5.946  30.227  12.785  0.00  0.00    -0.287 OA
ENDBRANCH  13  16
ENDBRANCH  12  13
ENDBRANCH  11  12
ENDBRANCH  10  11
ENDBRANCH   1  10
TORSDOF 6
REMARK  Name = ../refined-set-2016/1hpv/1hpv_pocket.pdb
REMARK  214 active torsions:
REMARK  status: ('A' for Active; 'I' for Inactive)
REMARK    1  A    between atoms: _1  and  _3
REMARK    2  A    between atoms: _3  and  _4
REMARK    3  A    between atoms: _3  and  _6
REMARK    4  A    between atoms: _6  and  _7
REMARK    5  A    between atoms: _7  and  _8
REMARK    6  A    between atoms: _8  and  _9
REMARK    7  A    between atoms: _18  and  _20
REMARK    8  A    between atoms: _20  and  _21
REMARK    9  A    between atoms: _20  and  _23
REMARK   10  A    between atoms: _23  and  _24
REMARK   11  A    between atoms: _27  and  _29
REMARK   12  A    between atoms: _29  and  _30
REMARK   13  A    between atoms: _29  and  _32
REMARK   14  A    between atoms: _32  and  _33
REMARK   15  A    between atoms: _36  and  _38
REMARK   16  A    between atoms: _38  and  _39
REMARK   17  A    between atoms: _38  and  _41
REMARK   18  A    between atoms: _41  and  _42
REMARK   19  A    between atoms: _45  and  _47
REMARK   20  A    between atoms: _47  and  _48
REMARK   21  A    between atoms: _47  and  _50
REMARK   22  A    between atoms: _50  and  _51
REMARK   23  A    between atoms: _54  and  _56
REMARK   24  A    between atoms: _56  and  _57
REMARK   25  A    between atoms: _59  and  _61
REMARK   26  A    between atoms: _61  and  _62
REMARK   27  A    between atoms: _65  and  _67
REMARK   28  A    between atoms: _67  and  _68
REMARK   29  A    between atoms: _67  and  _70
REMARK   30  A    between atoms: _70  and  _71
REMARK   31  A    between atoms: _74  and  _76
REMARK   32  A    between atoms: _76  and  _77
REMARK   33  A    between atoms: _76  and  _79
REMARK   34  A    between atoms: _79  and  _80
REMARK   35  A    between atoms: _83  and  _85
REMARK   36  A    between atoms: _85  and  _86
REMARK   37  A    between atoms: _85  and  _88
REMARK   38  A    between atoms: _88  and  _89
REMARK   39  A    between atoms: _92  and  _94
REMARK   40  A    between atoms: _94  and  _95
REMARK   41  A    between atoms: _94  and  _97
REMARK   42  A    between atoms: _100  and  _102
REMARK   43  A    between atoms: _102  and  _103
REMARK   44  A    between atoms: _102  and  _105
REMARK   45  A    between atoms: _105  and  _106
REMARK   46  A    between atoms: _106  and  _107
REMARK   47  A    between atoms: _107  and  _108
REMARK   48  A    between atoms: _108  and  _109
REMARK   49  A    between atoms: _113  and  _115
REMARK   50  A    between atoms: _115  and  _116
REMARK   51  A    between atoms: _115  and  _118
REMARK   52  A    between atoms: _118  and  _119
REMARK   53  A    between atoms: _119  and  _120
REMARK   54  A    between atoms: _122  and  _124
REMARK   55  A    between atoms: _124  and  _125
REMARK   56  A    between atoms: _124  and  _127
REMARK   57  A    between atoms: _127  and  _128
REMARK   58  A    between atoms: _131  and  _133
REMARK   59  A    between atoms: _133  and  _134
REMARK   60  A    between atoms: _136  and  _138
REMARK   61  A    between atoms: _138  and  _139
REMARK   62  A    between atoms: _141  and  _143
REMARK   63  A    between atoms: _143  and  _144
REMARK   64  A    between atoms: _143  and  _146
REMARK   65  A    between atoms: _146  and  _147
REMARK   66  A    between atoms: _150  and  _152
REMARK   67  A    between atoms: _152  and  _153
REMARK   68  A    between atoms: _155  and  _157
REMARK   69  A    between atoms: _157  and  _158
REMARK   70  A    between atoms: _160  and  _162
REMARK   71  A    between atoms: _162  and  _163
REMARK   72  A    between atoms: _162  and  _165
REMARK   73  A    between atoms: _165  and  _166
REMARK   74  A    between atoms: _169  and  _171
REMARK   75  A    between atoms: _171  and  _172
REMARK   76  A    between atoms: _171  and  _174
REMARK   77  A    between atoms: _174  and  _175
REMARK   78  A    between atoms: _178  and  _180
REMARK   79  A    between atoms: _180  and  _181
REMARK   80  A    between atoms: _180  and  _183
REMARK   81  A    between atoms: _183  and  _184
REMARK   82  A    between atoms: _188  and  _189
REMARK   83  A    between atoms: _194  and  _196
REMARK   84  A    between atoms: _196  and  _197
REMARK   85  A    between atoms: _196  and  _199
REMARK   86  A    between atoms: _202  and  _204
REMARK   87  A    between atoms: _204  and  _205
REMARK   88  A    between atoms: _204  and  _207
REMARK   89  A    between atoms: _207  and  _208
REMARK   90  A    between atoms: _213  and  _215
REMARK   91  A    between atoms: _215  and  _216
REMARK   92  A    between atoms: _215  and  _218
REMARK   93  A    between atoms: _218  and  _219
REMARK   94  A    between atoms: _222  and  _224
REMARK   95  A    between atoms: _224  and  _225
REMARK   96  A    between atoms: _224  and  _227
REMARK   97  A    between atoms: _227  and  _228
REMARK   98  A    between atoms: _231  and  _233
REMARK   99  A    between atoms: _233  and  _234
REMARK  100  A    between atoms: _236  and  _238
REMARK  101  A    between atoms: _238  and  _239
REMARK  102  A    between atoms: _238  and  _241
REMARK  103  A    between atoms: _241  and  _242
REMARK  104  A    between atoms: _242  and  _243
REMARK  105  A    between atoms: _243  and  _244
REMARK  106  A    between atoms: _253  and  _255
REMARK  107  A    between atoms: _255  and  _256
REMARK  108  A    between atoms: _255  and  _258
REMARK  109  A    between atoms: _258  and  _259
REMARK  110  A    between atoms: _264  and  _266
REMARK  111  A    between atoms: _266  and  _267
REMARK  112  A    between atoms: _266  and  _269
REMARK  113  A    between atoms: _269  and  _270
REMARK  114  A    between atoms: _270  and  _271
REMARK  115  A    between atoms: _271  and  _272
REMARK  116  A    between atoms: _281  and  _283
REMARK  117  A    between atoms: _283  and  _284
REMARK  118  A    between atoms: _283  and  _286
REMARK  119  A    between atoms: _286  and  _287
REMARK  120  A    between atoms: _290  and  _292
REMARK  121  A    between atoms: _292  and  _293
REMARK  122  A    between atoms: _292  and  _295
REMARK  123  A    between atoms: _295  and  _296
REMARK  124  A    between atoms: _299  and  _301
REMARK  125  A    between atoms: _301  and  _302
REMARK  126  A    between atoms: _301  and  _304
REMARK  127  A    between atoms: _304  and  _305
REMARK  128  A    between atoms: _308  and  _310
REMARK  129  A    between atoms: _310  and  _311
REMARK  130  A    between atoms: _310  and  _313
REMARK  131  A    between atoms: _313  and  _314
REMARK  132  A    between atoms: _317  and  _319
REMARK  133  A    between atoms: _319  and  _320
REMARK  134  A    between atoms: _322  and  _324
REMARK  135  A    between atoms: _324  and  _325
REMARK  136  A    between atoms: _328  and  _330
REMARK  137  A    between atoms: _330  and  _331
REMARK  138  A    between atoms: _330  and  _333
REMARK  139  A    between atoms: _333  and  _334
REMARK  140  A    between atoms: _337  and  _339
REMARK  141  A    between atoms: _339  and  _340
REMARK  142  A    between atoms: _339  and  _342
REMARK  143  A    between atoms: _342  and  _343
REMARK  144  A    between atoms: _346  and  _348
REMARK  145  A    between atoms: _348  and  _349
REMARK  146  A    between atoms: _348  and  _351
REMARK  147  A    between atoms: _351  and  _352
REMARK  148  A    between atoms: _355  and  _357
REMARK  149  A    between atoms: _357  and  _358
REMARK  150  A    between atoms: _357  and  _360
REMARK  151  A    between atoms: _363  and  _365
REMARK  152  A    between atoms: _365  and  _366
REMARK  153  A    between atoms: _365  and  _368
REMARK  154  A    between atoms: _368  and  _369
REMARK  155  A    between atoms: _369  and  _370
REMARK  156  A    between atoms: _370  and  _371
REMARK  157  A    between atoms: _371  and  _372
REMARK  158  A    between atoms: _376  and  _378
REMARK  159  A    between atoms: _378  and  _379
REMARK  160  A    between atoms: _378  and  _381
REMARK  161  A    between atoms: _381  and  _382
REMARK  162  A    between atoms: _385  and  _387
REMARK  163  A    between atoms: _387  and  _388
REMARK  164  A    between atoms: _390  and  _392
REMARK  165  A    between atoms: _392  and  _393
REMARK  166  A    between atoms: _395  and  _397
REMARK  167  A    between atoms: _397  and  _398
REMARK  168  A    between atoms: _397  and  _400
REMARK  169  A    between atoms: _400  and  _401
REMARK  170  A    between atoms: _404  and  _406
REMARK  171  A    between atoms: _406  and  _407
REMARK  172  A    between atoms: _409  and  _411
REMARK  173  A    between atoms: _411  and  _412
REMARK  174  A    between atoms: _414  and  _416
REMARK  175  A    between atoms: _416  and  _417
REMARK  176  A    between atoms: _416  and  _419
REMARK  177  A    between atoms: _419  and  _420
REMARK  178  A    between atoms: _423  and  _425
REMARK  179  A    between atoms: _425  and  _426
REMARK  180  A    between atoms: _425  and  _428
REMARK  181  A    between atoms: _428  and  _429
REMARK  182  A    between atoms: _433  and  _434
REMARK  183  A    between atoms: _439  and  _441
REMARK  184  A    between atoms: _441  and  _442
REMARK  185  A    between atoms: _441  and  _444
REMARK  186  A    between atoms: _444  and  _445
REMARK  187  A    between atoms: _449  and  _450
REMARK  188  A    between atoms: _455  and  _457
REMARK  189  A    between atoms: _457  and  _458
REMARK  190  A    between atoms: _457  and  _460
REMARK  191  A    between atoms: _463  and  _465
REMARK  192  A    between atoms: _465  and  _466
REMARK  193  A    between atoms: _465  and  _468
REMARK  194  A    between atoms: _468  and  _469
REMARK  195  A    between atoms: _474  and  _476
REMARK  196  A    between atoms: _476  and  _477
REMARK  197  A    between atoms: _476  and  _479
REMARK  198  A    between atoms: _479  and  _480
REMARK  199  A    between atoms: _483  and  _485
REMARK  200  A    between atoms: _485  and  _486
REMARK  201  A    between atoms: _485  and  _488
REMARK  202  A    between atoms: _488  and  _489
REMARK  203  A    between atoms: _492  and  _494
REMARK  204  A    between atoms: _494  and  _495
REMARK  205  A    between atoms: _497  and  _499
REMARK  206  A    between atoms: _499  and  _500
REMARK  207  A    between atoms: _499  and  _502
REMARK  208  A    between atoms: _502  and  _503
REMARK  209  A    between atoms: _503  and  _504
REMARK  210  A    between atoms: _504  and  _505
REMARK  211  A    between atoms: _514  and  _516
REMARK  212  A    between atoms: _516  and  _517
REMARK  213  A    between atoms: _516  and  _519
REMARK  214  A    between atoms: _519  and  _520
REMARK                            x       y       z     vdW  Elec       q    Type
REMARK                         _______ _______ _______ _____ _____    ______ ____
ROOT
ATOM      1  C   GLY A   5      13.958  19.186   5.971  0.00  0.00    +0.243 C 
ATOM      2  O   GLY A   5      14.093  17.968   5.912  0.00  0.00    -0.273 OA
ATOM      3  N   ALA A   6      13.219  19.883   5.107  0.00  0.00    -0.297 N 
ATOM      4  H   ALA A   6      13.144  20.912   5.238  0.00  0.00    +0.150 HD
ENDROOT
BRANCH   3   5
ATOM      5  CA  ALA A   6      12.506  19.270   3.981  0.00  0.00    +0.149 C 
ATOM      6  CB  ALA A   6      11.076  19.828   3.899  0.00  0.00    +0.031 C 
BRANCH   5   7
ATOM      7  C   ALA A   6      13.238  19.546   2.671  0.00  0.00    +0.241 C 
ATOM      8  O   ALA A   6      13.470  20.699   2.321  0.00  0.00    -0.273 OA
ATOM      9  N   ASP A   7      13.562  18.498   1.918  0.00  0.00    -0.297 N 
ATOM     10  H   ASP A   7      13.318  17.537   2.233  0.00  0.00    +0.150 HD
BRANCH   9  11
ATOM     11  CA  ASP A   7      14.260  18.696   0.649  0.00  0.00    +0.160 C 
BRANCH  11  12
ATOM     12  C   ASP A   7      13.326  19.277  -0.406  0.00  0.00    +0.241 C 
ATOM     13  N   ASP A   8      12.060  18.856  -0.373  0.00  0.00    -0.297 N 
ATOM     14  H   ASP A   8      11.781  18.179   0.366  0.00  0.00    +0.150 HD
ATOM     15  O   ASP A   7      13.757  20.073  -1.247  0.00  0.00    -0.273 OA
BRANCH  13  16
ATOM     16  CA  ASP A   8      11.047  19.304  -1.330  0.00  0.00    +0.160 C 
BRANCH  16  17
ATOM     17  C   ASP A   8       9.857  19.993  -0.688  0.00  0.00    +0.241 C 
ATOM     18  O   ASP A   8       9.666  19.934   0.526  0.00  0.00    -0.273 OA
ATOM     19  N   THR A   9       9.066  20.652  -1.525  0.00  0.00    -0.295 N 
ATOM     20  H   THR A   9       9.308  20.650  -2.536  0.00  0.00    +0.150 HD
BRANCH  19  21
ATOM     21  CA  THR A   9       7.876  21.378  -1.101  0.00  0.00    +0.176 C 
BRANCH  21  22
ATOM     22  C   THR A   9       6.674  20.427  -1.152  0.00  0.00    +0.243 C 
ATOM     23  N   VAL A  10       5.971  20.294  -0.036  0.00  0.00    -0.298 N 
ATOM     24  H   VAL A  10       6.246  20.836   0.808  0.00  0.00    +0.150 HD
ATOM     25  O   THR A   9       6.417  19.785  -2.168  0.00  0.00    -0.273 OA
BRANCH  23  26
ATOM     26  CA  VAL A  10       4.820  19.402   0.031  0.00  0.00    +0.137 C 
BRANCH  26  27
ATOM     27  CB  VAL A  10       5.041  18.217   0.998  0.00  0.00    +0.026 C 
ATOM     28  CG2 VAL A  10       6.431  17.665   0.842  0.00  0.00    +0.002 C 
ATOM     29  CG1 VAL A  10       4.030  17.144   0.717  0.00  0.00    +0.002 C 
ENDBRANCH  26  27
BRANCH  26  30
ATOM     30  C   VAL A  10       3.619  20.189   0.514  0.00  0.00    +0.227 C 
ATOM     31  O   VAL A  10       3.622  20.760   1.594  0.00  0.00    -0.286 OA
ENDBRANCH  26  30
ENDBRANCH  23  26
ENDBRANCH  21  22
BRANCH  21  32
ATOM     32  CB  THR A   9       7.691  22.612  -2.016  0.00  0.00    +0.137 C 
ATOM     33  CG2 THR A   9       6.417  23.356  -1.708  0.00  0.00    +0.034 C 
BRANCH  32  34
ATOM     34  OG1 THR A   9       8.797  23.504  -1.816  0.00  0.00    -0.382 OA
ATOM     35  HG1 THR A   9       9.640  23.039  -2.045  0.00  0.00    +0.210 HD
ENDBRANCH  32  34
ENDBRANCH  21  32
ENDBRANCH  19  21
ENDBRANCH  16  17
BRANCH  16  36
ATOM     36  CB  ASP A   8      10.544  18.130  -2.164  0.00  0.00    +0.143 C 
BRANCH  36  37
ATOM     37  CG  ASP A   8      11.533  17.699  -3.215  0.00  0.00    +0.367 C 
ATOM     38  OD2 ASP A   8      11.998  16.552  -3.118  0.00  0.00    -0.246 OA
ATOM     39  OD1 ASP A   8      11.845  18.493  -4.136  0.00  0.00    -0.246 OA
ENDBRANCH  36  37
ENDBRANCH  16  36
ENDBRANCH  13  16
ENDBRANCH  11  12
BRANCH  11  40
ATOM     40  CB  ASP A   7      14.852  17.384   0.126  0.00  0.00    +0.143 C 
BRANCH  40  41
ATOM     41  CG  ASP A   7      15.867  16.774   1.074  0.00  0.00    +0.367 C 
ATOM     42  OD2 ASP A   7      16.689  17.497   1.675  0.00  0.00    -0.246 OA
ATOM     43  OD1 ASP A   7      15.831  15.544   1.226  0.00  0.00    -0.246 OA
ENDBRANCH  40  41
ENDBRANCH  11  40
ENDBRANCH   9  11
ENDBRANCH   5   7
ENDBRANCH   3   5
BRANCH   1  44
ATOM     44  CA  GLY A   5      14.640  19.966   7.083  0.00  0.00    +0.176 C 
BRANCH  44  46
ATOM     45  C   THR A   4      15.245  22.161   6.271  0.00  0.00    +0.243 C 
ATOM     46  N   GLY A   5      14.440  21.402   7.007  0.00  0.00    -0.295 N 
ATOM     47  H   GLY A   5      13.658  21.841   7.534  0.00  0.00    +0.150 HD
ATOM     48  O   THR A   4      16.183  21.683   5.633  0.00  0.00    -0.273 OA
BRANCH  45  49
ATOM     49  CA  THR A   4      14.935  23.673   6.235  0.00  0.00    +0.176 C 
BRANCH  49  51
ATOM     50  C   ASP A   3      12.531  23.682   5.910  0.00  0.00    +0.241 C 
ATOM     51  N   THR A   4      13.579  23.948   6.682  0.00  0.00    -0.295 N 
ATOM     52  H   THR A   4      13.427  24.361   7.624  0.00  0.00    +0.150 HD
ATOM     53  O   ASP A   3      12.637  23.141   4.828  0.00  0.00    -0.273 OA
BRANCH  50  54
ATOM     54  CA  ASP A   3      11.148  23.989   6.478  0.00  0.00    +0.160 C 
BRANCH  54  57
ATOM     55  C   LEU A   2      10.202  26.197   6.733  0.00  0.00    +0.241 C 
ATOM     56  O   LEU A   2      10.544  26.261   7.914  0.00  0.00    -0.273 OA
ATOM     57  N   ASP A   3      10.510  25.173   5.951  0.00  0.00    -0.297 N 
ATOM     58  H   ASP A   3      10.288  25.223   4.936  0.00  0.00    +0.150 HD
BRANCH  55  59
ATOM     59  CA  LEU A   2       9.432  27.345   6.075  0.00  0.00    +0.149 C 
BRANCH  59  61
ATOM     60  C   LEU A   1       7.174  26.515   6.274  0.00  0.00    +0.238 C 
ATOM     61  N   LEU A   2       8.128  27.313   6.721  0.00  0.00    -0.297 N 
ATOM     62  H   LEU A   2       7.945  27.924   7.542  0.00  0.00    +0.150 HD
ATOM     63  O   LEU A   1       7.287  25.877   5.229  0.00  0.00    -0.274 OA
BRANCH  60  64
ATOM     64  CA  LEU A   1       5.868  26.497   7.048  0.00  0.00    +0.145 C 
BRANCH  64  65
ATOM     65  N   LEU A   1       4.787  26.466   6.090  0.00  0.00    -0.238 NA
ATOM     66  H   LEU A   1       4.480  25.551   5.702  0.00  0.00    +0.142 HD
ENDBRANCH  64  65
BRANCH  64  67
ATOM     67  CB  LEU A   1       5.774  25.238   7.922  0.00  0.00    +0.026 C 
BRANCH  67  68
ATOM     68  CG  LEU A   1       6.689  24.972   9.120  0.00  0.00    +0.002 C 
ATOM     69  CD2 LEU A   1       6.342  25.882  10.257  0.00  0.00    +0.000 C 
ATOM     70  CD1 LEU A   1       6.510  23.536   9.559  0.00  0.00    +0.000 C 
ENDBRANCH  67  68
ENDBRANCH  64  67
ENDBRANCH  60  64
ENDBRANCH  59  61
BRANCH  59  71
ATOM     71  CB  LEU A   2      10.116  28.678   6.324  0.00  0.00    +0.029 C 
BRANCH  71  72
ATOM     72  CG  LEU A   2       9.280  29.866   5.883  0.00  0.00    +0.002 C 
ATOM     73  CD2 LEU A   2       9.980  31.137   6.276  0.00  0.00    +0.000 C 
ATOM     74  CD1 LEU A   2       9.057  29.779   4.387  0.00  0.00    +0.000 C 
ENDBRANCH  71  72
ENDBRANCH  59  71
ENDBRANCH  55  59
ENDBRANCH  54  57
BRANCH  54  75
ATOM     75  CB  ASP A   3      10.202  22.823   6.203  0.00  0.00    +0.143 C 
BRANCH  75  76
ATOM     76  CG  ASP A   3      10.354  21.706   7.182  0.00  0.00    +0.367 C 
ATOM     77  OD2 ASP A   3      11.448  21.502   7.723  0.00  0.00    -0.246 OA
ATOM     78  OD1 ASP A   3       9.350  21.035   7.428  0.00  0.00    -0.246 OA
ENDBRANCH  75  76
ENDBRANCH  54  75
ENDBRANCH  50  54
ENDBRANCH  49  51
BRANCH  49  79
ATOM     79  CB  THR A   4      15.938  24.449   7.087  0.00  0.00    +0.137 C 
ATOM     80  CG2 THR A   4      15.740  25.940   6.862  0.00  0.00    +0.034 C 
BRANCH  79  81
ATOM     81  OG1 THR A   4      15.722  24.166   8.484  0.00  0.00    -0.382 OA
ATOM     82  HG1 THR A   4      15.839  23.196   8.645  0.00  0.00    +0.210 HD
ENDBRANCH  79  81
ENDBRANCH  49  79
ENDBRANCH  45  49
ENDBRANCH  44  46
ENDBRANCH   1  44
TORSDOF 35
REMARK  Name = ../refined-set-2016/1hpv/1hpv_pocket.pdb
REMARK  214 active torsions:
REMARK  status: ('A' for Active; 'I' for Inactive)
REMARK    1  A    between atoms: _1  and  _3
REMARK    2  A    between atoms: _3  and  _4
REMARK    3  A    between atoms: _3  and  _6
REMARK    4  A    between atoms: _6  and  _7
REMARK    5  A    between atoms: _7  and  _8
REMARK    6  A    between atoms: _8  and  _9
REMARK    7  A    between atoms: _18  and  _20
REMARK    8  A    between atoms: _20  and  _21
REMARK    9  A    between atoms: _20  and  _23
REMARK   10  A    between atoms: _23  and  _24
REMARK   11  A    between atoms: _27  and  _29
REMARK   12  A    between atoms: _29  and  _30
REMARK   13  A    between atoms: _29  and  _32
REMARK   14  A    between atoms: _32  and  _33
REMARK   15  A    between atoms: _36  and  _38
REMARK   16  A    between atoms: _38  and  _39
REMARK   17  A    between atoms: _38  and  _41
REMARK   18  A    between atoms: _41  and  _42
REMARK   19  A    between atoms: _45  and  _47
REMARK   20  A    between atoms: _47  and  _48
REMARK   21  A    between atoms: _47  and  _50
REMARK   22  A    between atoms: _50  and  _51
REMARK   23  A    between atoms: _54  and  _56
REMARK   24  A    between atoms: _56  and  _57
REMARK   25  A    between atoms: _59  and  _61
REMARK   26  A    between atoms: _61  and  _62
REMARK   27  A    between atoms: _65  and  _67
REMARK   28  A    between atoms: _67  and  _68
REMARK   29  A    between atoms: _67  and  _70
REMARK   30  A    between atoms: _70  and  _71
REMARK   31  A    between atoms: _74  and  _76
REMARK   32  A    between atoms: _76  and  _77
REMARK   33  A    between atoms: _76  and  _79
REMARK   34  A    between atoms: _79  and  _80
REMARK   35  A    between atoms: _83  and  _85
REMARK   36  A    between atoms: _85  and  _86
REMARK   37  A    between atoms: _85  and  _88
REMARK   38  A    between atoms: _88  and  _89
REMARK   39  A    between atoms: _92  and  _94
REMARK   40  A    between atoms: _94  and  _95
REMARK   41  A    between atoms: _94  and  _97
REMARK   42  A    between atoms: _100  and  _102
REMARK   43  A    between atoms: _102  and  _103
REMARK   44  A    between atoms: _102  and  _105
REMARK   45  A    between atoms: _105  and  _106
REMARK   46  A    between atoms: _106  and  _107
REMARK   47  A    between atoms: _107  and  _108
REMARK   48  A    between atoms: _108  and  _109
REMARK   49  A    between atoms: _113  and  _115
REMARK   50  A    between atoms: _115  and  _116
REMARK   51  A    between atoms: _115  and  _118
REMARK   52  A    between atoms: _118  and  _119
REMARK   53  A    between atoms: _119  and  _120
REMARK   54  A    between atoms: _122  and  _124
REMARK   55  A    between atoms: _124  and  _125
REMARK   56  A    between atoms: _124  and  _127
REMARK   57  A    between atoms: _127  and  _128
REMARK   58  A    between atoms: _131  and  _133
REMARK   59  A    between atoms: _133  and  _134
REMARK   60  A    between atoms: _136  and  _138
REMARK   61  A    between atoms: _138  and  _139
REMARK   62  A    between atoms: _141  and  _143
REMARK   63  A    between atoms: _143  and  _144
REMARK   64  A    between atoms: _143  and  _146
REMARK   65  A    between atoms: _146  and  _147
REMARK   66  A    between atoms: _150  and  _152
REMARK   67  A    between atoms: _152  and  _153
REMARK   68  A    between atoms: _155  and  _157
REMARK   69  A    between atoms: _157  and  _158
REMARK   70  A    between atoms: _160  and  _162
REMARK   71  A    between atoms: _162  and  _163
REMARK   72  A    between atoms: _162  and  _165
REMARK   73  A    between atoms: _165  and  _166
REMARK   74  A    between atoms: _169  and  _171
REMARK   75  A    between atoms: _171  and  _172
REMARK   76  A    between atoms: _171  and  _174
REMARK   77  A    between atoms: _174  and  _175
REMARK   78  A    between atoms: _178  and  _180
REMARK   79  A    between atoms: _180  and  _181
REMARK   80  A    between atoms: _180  and  _183
REMARK   81  A    between atoms: _183  and  _184
REMARK   82  A    between atoms: _188  and  _189
REMARK   83  A    between atoms: _194  and  _196
REMARK   84  A    between atoms: _196  and  _197
REMARK   85  A    between atoms: _196  and  _199
REMARK   86  A    between atoms: _202  and  _204
REMARK   87  A    between atoms: _204  and  _205
REMARK   88  A    between atoms: _204  and  _207
REMARK   89  A    between atoms: _207  and  _208
REMARK   90  A    between atoms: _213  and  _215
REMARK   91  A    between atoms: _215  and  _216
REMARK   92  A    between atoms: _215  and  _218
REMARK   93  A    between atoms: _218  and  _219
REMARK   94  A    between atoms: _222  and  _224
REMARK   95  A    between atoms: _224  and  _225
REMARK   96  A    between atoms: _224  and  _227
REMARK   97  A    between atoms: _227  and  _228
REMARK   98  A    between atoms: _231  and  _233
REMARK   99  A    between atoms: _233  and  _234
REMARK  100  A    between atoms: _236  and  _238
REMARK  101  A    between atoms: _238  and  _239
REMARK  102  A    between atoms: _238  and  _241
REMARK  103  A    between atoms: _241  and  _242
REMARK  104  A    between atoms: _242  and  _243
REMARK  105  A    between atoms: _243  and  _244
REMARK  106  A    between atoms: _253  and  _255
REMARK  107  A    between atoms: _255  and  _256
REMARK  108  A    between atoms: _255  and  _258
REMARK  109  A    between atoms: _258  and  _259
REMARK  110  A    between atoms: _264  and  _266
REMARK  111  A    between atoms: _266  and  _267
REMARK  112  A    between atoms: _266  and  _269
REMARK  113  A    between atoms: _269  and  _270
REMARK  114  A    between atoms: _270  and  _271
REMARK  115  A    between atoms: _271  and  _272
REMARK  116  A    between atoms: _281  and  _283
REMARK  117  A    between atoms: _283  and  _284
REMARK  118  A    between atoms: _283  and  _286
REMARK  119  A    between atoms: _286  and  _287
REMARK  120  A    between atoms: _290  and  _292
REMARK  121  A    between atoms: _292  and  _293
REMARK  122  A    between atoms: _292  and  _295
REMARK  123  A    between atoms: _295  and  _296
REMARK  124  A    between atoms: _299  and  _301
REMARK  125  A    between atoms: _301  and  _302
REMARK  126  A    between atoms: _301  and  _304
REMARK  127  A    between atoms: _304  and  _305
REMARK  128  A    between atoms: _308  and  _310
REMARK  129  A    between atoms: _310  and  _311
REMARK  130  A    between atoms: _310  and  _313
REMARK  131  A    between atoms: _313  and  _314
REMARK  132  A    between atoms: _317  and  _319
REMARK  133  A    between atoms: _319  and  _320
REMARK  134  A    between atoms: _322  and  _324
REMARK  135  A    between atoms: _324  and  _325
REMARK  136  A    between atoms: _328  and  _330
REMARK  137  A    between atoms: _330  and  _331
REMARK  138  A    between atoms: _330  and  _333
REMARK  139  A    between atoms: _333  and  _334
REMARK  140  A    between atoms: _337  and  _339
REMARK  141  A    between atoms: _339  and  _340
REMARK  142  A    between atoms: _339  and  _342
REMARK  143  A    between atoms: _342  and  _343
REMARK  144  A    between atoms: _346  and  _348
REMARK  145  A    between atoms: _348  and  _349
REMARK  146  A    between atoms: _348  and  _351
REMARK  147  A    between atoms: _351  and  _352
REMARK  148  A    between atoms: _355  and  _357
REMARK  149  A    between atoms: _357  and  _358
REMARK  150  A    between atoms: _357  and  _360
REMARK  151  A    between atoms: _363  and  _365
REMARK  152  A    between atoms: _365  and  _366
REMARK  153  A    between atoms: _365  and  _368
REMARK  154  A    between atoms: _368  and  _369
REMARK  155  A    between atoms: _369  and  _370
REMARK  156  A    between atoms: _370  and  _371
REMARK  157  A    between atoms: _371  and  _372
REMARK  158  A    between atoms: _376  and  _378
REMARK  159  A    between atoms: _378  and  _379
REMARK  160  A    between atoms: _378  and  _381
REMARK  161  A    between atoms: _381  and  _382
REMARK  162  A    between atoms: _385  and  _387
REMARK  163  A    between atoms: _387  and  _388
REMARK  164  A    between atoms: _390  and  _392
REMARK  165  A    between atoms: _392  and  _393
REMARK  166  A    between atoms: _395  and  _397
REMARK  167  A    between atoms: _397  and  _398
REMARK  168  A    between atoms: _397  and  _400
REMARK  169  A    between atoms: _400  and  _401
REMARK  170  A    between atoms: _404  and  _406
REMARK  171  A    between atoms: _406  and  _407
REMARK  172  A    between atoms: _409  and  _411
REMARK  173  A    between atoms: _411  and  _412
REMARK  174  A    between atoms: _414  and  _416
REMARK  175  A    between atoms: _416  and  _417
REMARK  176  A    between atoms: _416  and  _419
REMARK  177  A    between atoms: _419  and  _420
REMARK  178  A    between atoms: _423  and  _425
REMARK  179  A    between atoms: _425  and  _426
REMARK  180  A    between atoms: _425  and  _428
REMARK  181  A    between atoms: _428  and  _429
REMARK  182  A    between atoms: _433  and  _434
REMARK  183  A    between atoms: _439  and  _441
REMARK  184  A    between atoms: _441  and  _442
REMARK  185  A    between atoms: _441  and  _444
REMARK  186  A    between atoms: _444  and  _445
REMARK  187  A    between atoms: _449  and  _450
REMARK  188  A    between atoms: _455  and  _457
REMARK  189  A    between atoms: _457  and  _458
REMARK  190  A    between atoms: _457  and  _460
REMARK  191  A    between atoms: _463  and  _465
REMARK  192  A    between atoms: _465  and  _466
REMARK  193  A    between atoms: _465  and  _468
REMARK  194  A    between atoms: _468  and  _469
REMARK  195  A    between atoms: _474  and  _476
REMARK  196  A    between atoms: _476  and  _477
REMARK  197  A    between atoms: _476  and  _479
REMARK  198  A    between atoms: _479  and  _480
REMARK  199  A    between atoms: _483  and  _485
REMARK  200  A    between atoms: _485  and  _486
REMARK  201  A    between atoms: _485  and  _488
REMARK  202  A    between atoms: _488  and  _489
REMARK  203  A    between atoms: _492  and  _494
REMARK  204  A    between atoms: _494  and  _495
REMARK  205  A    between atoms: _497  and  _499
REMARK  206  A    between atoms: _499  and  _500
REMARK  207  A    between atoms: _499  and  _502
REMARK  208  A    between atoms: _502  and  _503
REMARK  209  A    between atoms: _503  and  _504
REMARK  210  A    between atoms: _504  and  _505
REMARK  211  A    between atoms: _514  and  _516
REMARK  212  A    between atoms: _516  and  _517
REMARK  213  A    between atoms: _516  and  _519
REMARK  214  A    between atoms: _519  and  _520
REMARK                            x       y       z     vdW  Elec       q    Type
REMARK                         _______ _______ _______ _____ _____    ______ ____
ROOT
ATOM      1  C   ILE A   3       8.052   9.989   1.308  0.00  0.00    +0.241 C 
ATOM      2  N   GLY A   4       9.264  10.089   1.839  0.00  0.00    -0.295 N 
ATOM      3  H   GLY A   4      10.004  10.620   1.337  0.00  0.00    +0.150 HD
ATOM      4  O   ILE A   3       7.134   9.362   1.838  0.00  0.00    -0.273 OA
ENDROOT
BRANCH   1   5
ATOM      5  CA  ILE A   3       7.838  10.720  -0.008  0.00  0.00    +0.149 C 
BRANCH   5   7
ATOM      6  C   MET A   2       7.333   9.454  -2.023  0.00  0.00    +0.241 C 
ATOM      7  N   ILE A   3       6.946   9.977  -0.870  0.00  0.00    -0.297 N 
ATOM      8  H   ILE A   3       5.958   9.848  -0.571  0.00  0.00    +0.150 HD
ATOM      9  O   MET A   2       8.482   9.529  -2.457  0.00  0.00    -0.273 OA
BRANCH   6  10
ATOM     10  CA  MET A   2       6.248   8.759  -2.816  0.00  0.00    +0.149 C 
BRANCH  10  12
ATOM     11  C   LYS A   1       5.443   9.580  -4.963  0.00  0.00    +0.238 C 
ATOM     12  N   MET A   2       6.422   9.052  -4.237  0.00  0.00    -0.297 N 
ATOM     13  H   MET A   2       7.334   8.842  -4.691  0.00  0.00    +0.150 HD
ATOM     14  O   LYS A   1       4.319   9.786  -4.499  0.00  0.00    -0.274 OA
BRANCH  11  15
ATOM     15  CA  LYS A   1       5.741   9.866  -6.444  0.00  0.00    +0.145 C 
BRANCH  15  16
ATOM     16  N   LYS A   1       4.472   9.910  -7.158  0.00  0.00    -0.238 NA
ATOM     17  H   LYS A   1       3.588  10.016  -6.620  0.00  0.00    +0.142 HD
ENDBRANCH  15  16
BRANCH  15  18
ATOM     18  CB  LYS A   1       6.464  11.207  -6.612  0.00  0.00    +0.026 C 
BRANCH  18  19
ATOM     19  CG  LYS A   1       7.900  11.215  -6.143  0.00  0.00    -0.000 C 
BRANCH  19  20
ATOM     20  CD  LYS A   1       8.203  12.530  -5.439  0.00  0.00    -0.024 C 
BRANCH  20  21
ATOM     21  CE  LYS A   1       9.705  12.773  -5.261  0.00  0.00    -0.086 C 
BRANCH  21  22
ATOM     22  NZ  LYS A   1      10.298  13.425  -6.465  0.00  0.00    +0.380 N 
ATOM     23  HZ1 LYS A   1      11.316  13.575  -6.311  0.00  0.00    -0.089 HD
ATOM     24  HZ2 LYS A   1       9.832  14.341  -6.627  0.00  0.00    -0.089 HD
ATOM     25  HZ3 LYS A   1      10.158  12.812  -7.294  0.00  0.00    -0.089 HD
ENDBRANCH  21  22
ENDBRANCH  20  21
ENDBRANCH  19  20
ENDBRANCH  18  19
ENDBRANCH  15  18
ENDBRANCH  11  15
ENDBRANCH  10  12
BRANCH  10  26
ATOM     26  CB  MET A   2       6.257   7.259  -2.553  0.00  0.00    +0.041 C 
BRANCH  26  27
ATOM     27  CG  MET A   2       4.947   6.615  -2.925  0.00  0.00    +0.060 C 
BRANCH  27  28
ATOM     28  SD  MET A   2       5.108   4.867  -3.050  0.00  0.00    -0.139 S 
ATOM     29  CE  MET A   2       5.410   4.706  -4.886  0.00  0.00    +0.069 C 
ENDBRANCH  27  28
ENDBRANCH  26  27
ENDBRANCH  10  26
ENDBRANCH   6  10
ENDBRANCH   5   7
BRANCH   5  30
ATOM     30  CB  ILE A   3       7.224  12.132   0.269  0.00  0.00    +0.027 C 
ATOM     31  CG2 ILE A   3       8.016  12.898   1.288  0.00  0.00    +0.002 C 
BRANCH  30  32
ATOM     32  CG1 ILE A   3       7.155  12.927  -1.037  0.00  0.00    +0.002 C 
ATOM     33  CD1 ILE A   3       8.469  12.969  -1.801  0.00  0.00    +0.000 C 
ENDBRANCH  30  32
ENDBRANCH   5  30
ENDBRANCH   1   5
BRANCH   2  34
ATOM     34  CA  GLY A   4       9.565   9.466   3.111  0.00  0.00    +0.176 C 
BRANCH  34  35
ATOM     35  C   GLY A   4       9.744  10.529   4.169  0.00  0.00    +0.243 C 
ATOM     36  N   GLY A   5       8.941  10.438   5.214  0.00  0.00    -0.295 N 
ATOM     37  H   GLY A   5       8.249   9.663   5.258  0.00  0.00    +0.150 HD
ATOM     38  O   GLY A   4      10.588  11.411   4.038  0.00  0.00    -0.273 OA
BRANCH  36  39
ATOM     39  CA  GLY A   5       9.004  11.393   6.297  0.00  0.00    +0.176 C 
BRANCH  39  40
ATOM     40  C   GLY A   5       9.344  10.675   7.583  0.00  0.00    +0.243 C 
ATOM     41  N   ILE A   6       8.981  11.260   8.715  0.00  0.00    -0.297 N 
ATOM     42  H   ILE A   6       8.459  12.159   8.683  0.00  0.00    +0.150 HD
ATOM     43  O   GLY A   5       9.838   9.554   7.555  0.00  0.00    -0.273 OA
BRANCH  41  44
ATOM     44  CA  ILE A   6       9.301  10.665   9.995  0.00  0.00    +0.149 C 
BRANCH  44  45
ATOM     45  C   ILE A   6       8.493   9.441  10.347  0.00  0.00    +0.241 C 
ATOM     46  O   ILE A   6       9.031   8.507  10.942  0.00  0.00    -0.273 OA
ATOM     47  N   GLY A   7       7.220   9.426   9.957  0.00  0.00    -0.295 N 
ATOM     48  H   GLY A   7       6.838  10.222   9.407  0.00  0.00    +0.150 HD
BRANCH  47  49
ATOM     49  CA  GLY A   7       6.362   8.303  10.296  0.00  0.00    +0.176 C 
BRANCH  49  50
ATOM     50  C   GLY A   7       6.200   7.237   9.230  0.00  0.00    +0.243 C 
ATOM     51  O   GLY A   7       5.645   6.165   9.478  0.00  0.00    -0.273 OA
ATOM     52  N   GLY A   8       6.674   7.533   8.032  0.00  0.00    -0.296 N 
ATOM     53  H   GLY A   8       7.137   8.448   7.857  0.00  0.00    +0.150 HD
BRANCH  52  54
ATOM     54  CA  GLY A   8       6.538   6.568   6.975  0.00  0.00    +0.163 C 
BRANCH  54  55
ATOM     55  C   GLY A   8       6.543   7.235   5.625  0.00  0.00    +0.229 C 
ATOM     56  O   GLY A   8       7.022   8.357   5.477  0.00  0.00    -0.286 OA
ENDBRANCH  54  55
ENDBRANCH  52  54
ENDBRANCH  49  50
ENDBRANCH  47  49
ENDBRANCH  44  45
BRANCH  44  57
ATOM     57  CB  ILE A   6       9.210  11.683  11.143  0.00  0.00    +0.027 C 
ATOM     58  CG2 ILE A   6       7.769  11.845  11.602  0.00  0.00    +0.002 C 
BRANCH  57  59
ATOM     59  CG1 ILE A   6      10.074  11.213  12.314  0.00  0.00    +0.002 C 
ATOM     60  CD1 ILE A   6      10.577  12.332  13.195  0.00  0.00    +0.000 C 
ENDBRANCH  57  59
ENDBRANCH  44  57
ENDBRANCH  41  44
ENDBRANCH  39  40
ENDBRANCH  36  39
ENDBRANCH  34  35
ENDBRANCH   2  34
TORSDOF 28
REMARK  Name = ../refined-set-2016/1hpv/1hpv_pocket.pdb
REMARK  214 active torsions:
REMARK  status: ('A' for Active; 'I' for Inactive)
REMARK    1  A    between atoms: _1  and  _3
REMARK    2  A    between atoms: _3  and  _4
REMARK    3  A    between atoms: _3  and  _6
REMARK    4  A    between atoms: _6  and  _7
REMARK    5  A    between atoms: _7  and  _8
REMARK    6  A    between atoms: _8  and  _9
REMARK    7  A    between atoms: _18  and  _20
REMARK    8  A    between atoms: _20  and  _21
REMARK    9  A    between atoms: _20  and  _23
REMARK   10  A    between atoms: _23  and  _24
REMARK   11  A    between atoms: _27  and  _29
REMARK   12  A    between atoms: _29  and  _30
REMARK   13  A    between atoms: _29  and  _32
REMARK   14  A    between atoms: _32  and  _33
REMARK   15  A    between atoms: _36  and  _38
REMARK   16  A    between atoms: _38  and  _39
REMARK   17  A    between atoms: _38  and  _41
REMARK   18  A    between atoms: _41  and  _42
REMARK   19  A    between atoms: _45  and  _47
REMARK   20  A    between atoms: _47  and  _48
REMARK   21  A    between atoms: _47  and  _50
REMARK   22  A    between atoms: _50  and  _51
REMARK   23  A    between atoms: _54  and  _56
REMARK   24  A    between atoms: _56  and  _57
REMARK   25  A    between atoms: _59  and  _61
REMARK   26  A    between atoms: _61  and  _62
REMARK   27  A    between atoms: _65  and  _67
REMARK   28  A    between atoms: _67  and  _68
REMARK   29  A    between atoms: _67  and  _70
REMARK   30  A    between atoms: _70  and  _71
REMARK   31  A    between atoms: _74  and  _76
REMARK   32  A    between atoms: _76  and  _77
REMARK   33  A    between atoms: _76  and  _79
REMARK   34  A    between atoms: _79  and  _80
REMARK   35  A    between atoms: _83  and  _85
REMARK   36  A    between atoms: _85  and  _86
REMARK   37  A    between atoms: _85  and  _88
REMARK   38  A    between atoms: _88  and  _89
REMARK   39  A    between atoms: _92  and  _94
REMARK   40  A    between atoms: _94  and  _95
REMARK   41  A    between atoms: _94  and  _97
REMARK   42  A    between atoms: _100  and  _102
REMARK   43  A    between atoms: _102  and  _103
REMARK   44  A    between atoms: _102  and  _105
REMARK   45  A    between atoms: _105  and  _106
REMARK   46  A    between atoms: _106  and  _107
REMARK   47  A    between atoms: _107  and  _108
REMARK   48  A    between atoms: _108  and  _109
REMARK   49  A    between atoms: _113  and  _115
REMARK   50  A    between atoms: _115  and  _116
REMARK   51  A    between atoms: _115  and  _118
REMARK   52  A    between atoms: _118  and  _119
REMARK   53  A    between atoms: _119  and  _120
REMARK   54  A    between atoms: _122  and  _124
REMARK   55  A    between atoms: _124  and  _125
REMARK   56  A    between atoms: _124  and  _127
REMARK   57  A    between atoms: _127  and  _128
REMARK   58  A    between atoms: _131  and  _133
REMARK   59  A    between atoms: _133  and  _134
REMARK   60  A    between atoms: _136  and  _138
REMARK   61  A    between atoms: _138  and  _139
REMARK   62  A    between atoms: _141  and  _143
REMARK   63  A    between atoms: _143  and  _144
REMARK   64  A    between atoms: _143  and  _146
REMARK   65  A    between atoms: _146  and  _147
REMARK   66  A    between atoms: _150  and  _152
REMARK   67  A    between atoms: _152  and  _153
REMARK   68  A    between atoms: _155  and  _157
REMARK   69  A    between atoms: _157  and  _158
REMARK   70  A    between atoms: _160  and  _162
REMARK   71  A    between atoms: _162  and  _163
REMARK   72  A    between atoms: _162  and  _165
REMARK   73  A    between atoms: _165  and  _166
REMARK   74  A    between atoms: _169  and  _171
REMARK   75  A    between atoms: _171  and  _172
REMARK   76  A    between atoms: _171  and  _174
REMARK   77  A    between atoms: _174  and  _175
REMARK   78  A    between atoms: _178  and  _180
REMARK   79  A    between atoms: _180  and  _181
REMARK   80  A    between atoms: _180  and  _183
REMARK   81  A    between atoms: _183  and  _184
REMARK   82  A    between atoms: _188  and  _189
REMARK   83  A    between atoms: _194  and  _196
REMARK   84  A    between atoms: _196  and  _197
REMARK   85  A    between atoms: _196  and  _199
REMARK   86  A    between atoms: _202  and  _204
REMARK   87  A    between atoms: _204  and  _205
REMARK   88  A    between atoms: _204  and  _207
REMARK   89  A    between atoms: _207  and  _208
REMARK   90  A    between atoms: _213  and  _215
REMARK   91  A    between atoms: _215  and  _216
REMARK   92  A    between atoms: _215  and  _218
REMARK   93  A    between atoms: _218  and  _219
REMARK   94  A    between atoms: _222  and  _224
REMARK   95  A    between atoms: _224  and  _225
REMARK   96  A    between atoms: _224  and  _227
REMARK   97  A    between atoms: _227  and  _228
REMARK   98  A    between atoms: _231  and  _233
REMARK   99  A    between atoms: _233  and  _234
REMARK  100  A    between atoms: _236  and  _238
REMARK  101  A    between atoms: _238  and  _239
REMARK  102  A    between atoms: _238  and  _241
REMARK  103  A    between atoms: _241  and  _242
REMARK  104  A    between atoms: _242  and  _243
REMARK  105  A    between atoms: _243  and  _244
REMARK  106  A    between atoms: _253  and  _255
REMARK  107  A    between atoms: _255  and  _256
REMARK  108  A    between atoms: _255  and  _258
REMARK  109  A    between atoms: _258  and  _259
REMARK  110  A    between atoms: _264  and  _266
REMARK  111  A    between atoms: _266  and  _267
REMARK  112  A    between atoms: _266  and  _269
REMARK  113  A    between atoms: _269  and  _270
REMARK  114  A    between atoms: _270  and  _271
REMARK  115  A    between atoms: _271  and  _272
REMARK  116  A    between atoms: _281  and  _283
REMARK  117  A    between atoms: _283  and  _284
REMARK  118  A    between atoms: _283  and  _286
REMARK  119  A    between atoms: _286  and  _287
REMARK  120  A    between atoms: _290  and  _292
REMARK  121  A    between atoms: _292  and  _293
REMARK  122  A    between atoms: _292  and  _295
REMARK  123  A    between atoms: _295  and  _296
REMARK  124  A    between atoms: _299  and  _301
REMARK  125  A    between atoms: _301  and  _302
REMARK  126  A    between atoms: _301  and  _304
REMARK  127  A    between atoms: _304  and  _305
REMARK  128  A    between atoms: _308  and  _310
REMARK  129  A    between atoms: _310  and  _311
REMARK  130  A    between atoms: _310  and  _313
REMARK  131  A    between atoms: _313  and  _314
REMARK  132  A    between atoms: _317  and  _319
REMARK  133  A    between atoms: _319  and  _320
REMARK  134  A    between atoms: _322  and  _324
REMARK  135  A    between atoms: _324  and  _325
REMARK  136  A    between atoms: _328  and  _330
REMARK  137  A    between atoms: _330  and  _331
REMARK  138  A    between atoms: _330  and  _333
REMARK  139  A    between atoms: _333  and  _334
REMARK  140  A    between atoms: _337  and  _339
REMARK  141  A    between atoms: _339  and  _340
REMARK  142  A    between atoms: _339  and  _342
REMARK  143  A    between atoms: _342  and  _343
REMARK  144  A    between atoms: _346  and  _348
REMARK  145  A    between atoms: _348  and  _349
REMARK  146  A    between atoms: _348  and  _351
REMARK  147  A    between atoms: _351  and  _352
REMARK  148  A    between atoms: _355  and  _357
REMARK  149  A    between atoms: _357  and  _358
REMARK  150  A    between atoms: _357  and  _360
REMARK  151  A    between atoms: _363  and  _365
REMARK  152  A    between atoms: _365  and  _366
REMARK  153  A    between atoms: _365  and  _368
REMARK  154  A    between atoms: _368  and  _369
REMARK  155  A    between atoms: _369  and  _370
REMARK  156  A    between atoms: _370  and  _371
REMARK  157  A    between atoms: _371  and  _372
REMARK  158  A    between atoms: _376  and  _378
REMARK  159  A    between atoms: _378  and  _379
REMARK  160  A    between atoms: _378  and  _381
REMARK  161  A    between atoms: _381  and  _382
REMARK  162  A    between atoms: _385  and  _387
REMARK  163  A    between atoms: _387  and  _388
REMARK  164  A    between atoms: _390  and  _392
REMARK  165  A    between atoms: _392  and  _393
REMARK  166  A    between atoms: _395  and  _397
REMARK  167  A    between atoms: _397  and  _398
REMARK  168  A    between atoms: _397  and  _400
REMARK  169  A    between atoms: _400  and  _401
REMARK  170  A    between atoms: _404  and  _406
REMARK  171  A    between atoms: _406  and  _407
REMARK  172  A    between atoms: _409  and  _411
REMARK  173  A    between atoms: _411  and  _412
REMARK  174  A    between atoms: _414  and  _416
REMARK  175  A    between atoms: _416  and  _417
REMARK  176  A    between atoms: _416  and  _419
REMARK  177  A    between atoms: _419  and  _420
REMARK  178  A    between atoms: _423  and  _425
REMARK  179  A    between atoms: _425  and  _426
REMARK  180  A    between atoms: _425  and  _428
REMARK  181  A    between atoms: _428  and  _429
REMARK  182  A    between atoms: _433  and  _434
REMARK  183  A    between atoms: _439  and  _441
REMARK  184  A    between atoms: _441  and  _442
REMARK  185  A    between atoms: _441  and  _444
REMARK  186  A    between atoms: _444  and  _445
REMARK  187  A    between atoms: _449  and  _450
REMARK  188  A    between atoms: _455  and  _457
REMARK  189  A    between atoms: _457  and  _458
REMARK  190  A    between atoms: _457  and  _460
REMARK  191  A    between atoms: _463  and  _465
REMARK  192  A    between atoms: _465  and  _466
REMARK  193  A    between atoms: _465  and  _468
REMARK  194  A    between atoms: _468  and  _469
REMARK  195  A    between atoms: _474  and  _476
REMARK  196  A    between atoms: _476  and  _477
REMARK  197  A    between atoms: _476  and  _479
REMARK  198  A    between atoms: _479  and  _480
REMARK  199  A    between atoms: _483  and  _485
REMARK  200  A    between atoms: _485  and  _486
REMARK  201  A    between atoms: _485  and  _488
REMARK  202  A    between atoms: _488  and  _489
REMARK  203  A    between atoms: _492  and  _494
REMARK  204  A    between atoms: _494  and  _495
REMARK  205  A    between atoms: _497  and  _499
REMARK  206  A    between atoms: _499  and  _500
REMARK  207  A    between atoms: _499  and  _502
REMARK  208  A    between atoms: _502  and  _503
REMARK  209  A    between atoms: _503  and  _504
REMARK  210  A    between atoms: _504  and  _505
REMARK  211  A    between atoms: _514  and  _516
REMARK  212  A    between atoms: _516  and  _517
REMARK  213  A    between atoms: _516  and  _519
REMARK  214  A    between atoms: _519  and  _520
REMARK                            x       y       z     vdW  Elec       q    Type
REMARK                         _______ _______ _______ _____ _____    ______ ____
ROOT
ATOM      1  CA  ILE A   1       3.120   8.983   1.587  0.00  0.00    +0.133 C 
ENDROOT
BRANCH   1   2
ATOM      2  N   ILE A   1       4.392   8.581   2.166  0.00  0.00    -0.239 NA
ATOM      3  H   ILE A   1       5.224   9.197   2.069  0.00  0.00    +0.142 HD
ENDBRANCH   1   2
BRANCH   1   4
ATOM      4  CB  ILE A   1       2.576  10.348   2.112  0.00  0.00    +0.023 C 
ATOM      5  CG2 ILE A   1       2.294  10.251   3.597  0.00  0.00    +0.002 C 
BRANCH   4   6
ATOM      6  CG1 ILE A   1       3.523  11.511   1.761  0.00  0.00    +0.002 C 
ATOM      7  CD1 ILE A   1       2.946  12.872   2.059  0.00  0.00    +0.000 C 
ENDBRANCH   4   6
ENDBRANCH   1   4
BRANCH   1   8
ATOM      8  C   ILE A   1       3.293   9.027   0.066  0.00  0.00    +0.224 C 
ATOM      9  O   ILE A   1       4.405   9.184  -0.448  0.00  0.00    -0.287 OA
ENDBRANCH   1   8
TORSDOF 4
REMARK  Name = ../refined-set-2016/1hpv/1hpv_pocket.pdb
REMARK  214 active torsions:
REMARK  status: ('A' for Active; 'I' for Inactive)
REMARK    1  A    between atoms: _1  and  _3
REMARK    2  A    between atoms: _3  and  _4
REMARK    3  A    between atoms: _3  and  _6
REMARK    4  A    between atoms: _6  and  _7
REMARK    5  A    between atoms: _7  and  _8
REMARK    6  A    between atoms: _8  and  _9
REMARK    7  A    between atoms: _18  and  _20
REMARK    8  A    between atoms: _20  and  _21
REMARK    9  A    between atoms: _20  and  _23
REMARK   10  A    between atoms: _23  and  _24
REMARK   11  A    between atoms: _27  and  _29
REMARK   12  A    between atoms: _29  and  _30
REMARK   13  A    between atoms: _29  and  _32
REMARK   14  A    between atoms: _32  and  _33
REMARK   15  A    between atoms: _36  and  _38
REMARK   16  A    between atoms: _38  and  _39
REMARK   17  A    between atoms: _38  and  _41
REMARK   18  A    between atoms: _41  and  _42
REMARK   19  A    between atoms: _45  and  _47
REMARK   20  A    between atoms: _47  and  _48
REMARK   21  A    between atoms: _47  and  _50
REMARK   22  A    between atoms: _50  and  _51
REMARK   23  A    between atoms: _54  and  _56
REMARK   24  A    between atoms: _56  and  _57
REMARK   25  A    between atoms: _59  and  _61
REMARK   26  A    between atoms: _61  and  _62
REMARK   27  A    between atoms: _65  and  _67
REMARK   28  A    between atoms: _67  and  _68
REMARK   29  A    between atoms: _67  and  _70
REMARK   30  A    between atoms: _70  and  _71
REMARK   31  A    between atoms: _74  and  _76
REMARK   32  A    between atoms: _76  and  _77
REMARK   33  A    between atoms: _76  and  _79
REMARK   34  A    between atoms: _79  and  _80
REMARK   35  A    between atoms: _83  and  _85
REMARK   36  A    between atoms: _85  and  _86
REMARK   37  A    between atoms: _85  and  _88
REMARK   38  A    between atoms: _88  and  _89
REMARK   39  A    between atoms: _92  and  _94
REMARK   40  A    between atoms: _94  and  _95
REMARK   41  A    between atoms: _94  and  _97
REMARK   42  A    between atoms: _100  and  _102
REMARK   43  A    between atoms: _102  and  _103
REMARK   44  A    between atoms: _102  and  _105
REMARK   45  A    between atoms: _105  and  _106
REMARK   46  A    between atoms: _106  and  _107
REMARK   47  A    between atoms: _107  and  _108
REMARK   48  A    between atoms: _108  and  _109
REMARK   49  A    between atoms: _113  and  _115
REMARK   50  A    between atoms: _115  and  _116
REMARK   51  A    between atoms: _115  and  _118
REMARK   52  A    between atoms: _118  and  _119
REMARK   53  A    between atoms: _119  and  _120
REMARK   54  A    between atoms: _122  and  _124
REMARK   55  A    between atoms: _124  and  _125
REMARK   56  A    between atoms: _124  and  _127
REMARK   57  A    between atoms: _127  and  _128
REMARK   58  A    between atoms: _131  and  _133
REMARK   59  A    between atoms: _133  and  _134
REMARK   60  A    between atoms: _136  and  _138
REMARK   61  A    between atoms: _138  and  _139
REMARK   62  A    between atoms: _141  and  _143
REMARK   63  A    between atoms: _143  and  _144
REMARK   64  A    between atoms: _143  and  _146
REMARK   65  A    between atoms: _146  and  _147
REMARK   66  A    between atoms: _150  and  _152
REMARK   67  A    between atoms: _152  and  _153
REMARK   68  A    between atoms: _155  and  _157
REMARK   69  A    between atoms: _157  and  _158
REMARK   70  A    between atoms: _160  and  _162
REMARK   71  A    between atoms: _162  and  _163
REMARK   72  A    between atoms: _162  and  _165
REMARK   73  A    between atoms: _165  and  _166
REMARK   74  A    between atoms: _169  and  _171
REMARK   75  A    between atoms: _171  and  _172
REMARK   76  A    between atoms: _171  and  _174
REMARK   77  A    between atoms: _174  and  _175
REMARK   78  A    between atoms: _178  and  _180
REMARK   79  A    between atoms: _180  and  _181
REMARK   80  A    between atoms: _180  and  _183
REMARK   81  A    between atoms: _183  and  _184
REMARK   82  A    between atoms: _188  and  _189
REMARK   83  A    between atoms: _194  and  _196
REMARK   84  A    between atoms: _196  and  _197
REMARK   85  A    between atoms: _196  and  _199
REMARK   86  A    between atoms: _202  and  _204
REMARK   87  A    between atoms: _204  and  _205
REMARK   88  A    between atoms: _204  and  _207
REMARK   89  A    between atoms: _207  and  _208
REMARK   90  A    between atoms: _213  and  _215
REMARK   91  A    between atoms: _215  and  _216
REMARK   92  A    between atoms: _215  and  _218
REMARK   93  A    between atoms: _218  and  _219
REMARK   94  A    between atoms: _222  and  _224
REMARK   95  A    between atoms: _224  and  _225
REMARK   96  A    between atoms: _224  and  _227
REMARK   97  A    between atoms: _227  and  _228
REMARK   98  A    between atoms: _231  and  _233
REMARK   99  A    between atoms: _233  and  _234
REMARK  100  A    between atoms: _236  and  _238
REMARK  101  A    between atoms: _238  and  _239
REMARK  102  A    between atoms: _238  and  _241
REMARK  103  A    between atoms: _241  and  _242
REMARK  104  A    between atoms: _242  and  _243
REMARK  105  A    between atoms: _243  and  _244
REMARK  106  A    between atoms: _253  and  _255
REMARK  107  A    between atoms: _255  and  _256
REMARK  108  A    between atoms: _255  and  _258
REMARK  109  A    between atoms: _258  and  _259
REMARK  110  A    between atoms: _264  and  _266
REMARK  111  A    between atoms: _266  and  _267
REMARK  112  A    between atoms: _266  and  _269
REMARK  113  A    between atoms: _269  and  _270
REMARK  114  A    between atoms: _270  and  _271
REMARK  115  A    between atoms: _271  and  _272
REMARK  116  A    between atoms: _281  and  _283
REMARK  117  A    between atoms: _283  and  _284
REMARK  118  A    between atoms: _283  and  _286
REMARK  119  A    between atoms: _286  and  _287
REMARK  120  A    between atoms: _290  and  _292
REMARK  121  A    between atoms: _292  and  _293
REMARK  122  A    between atoms: _292  and  _295
REMARK  123  A    between atoms: _295  and  _296
REMARK  124  A    between atoms: _299  and  _301
REMARK  125  A    between atoms: _301  and  _302
REMARK  126  A    between atoms: _301  and  _304
REMARK  127  A    between atoms: _304  and  _305
REMARK  128  A    between atoms: _308  and  _310
REMARK  129  A    between atoms: _310  and  _311
REMARK  130  A    between atoms: _310  and  _313
REMARK  131  A    between atoms: _313  and  _314
REMARK  132  A    between atoms: _317  and  _319
REMARK  133  A    between atoms: _319  and  _320
REMARK  134  A    between atoms: _322  and  _324
REMARK  135  A    between atoms: _324  and  _325
REMARK  136  A    between atoms: _328  and  _330
REMARK  137  A    between atoms: _330  and  _331
REMARK  138  A    between atoms: _330  and  _333
REMARK  139  A    between atoms: _333  and  _334
REMARK  140  A    between atoms: _337  and  _339
REMARK  141  A    between atoms: _339  and  _340
REMARK  142  A    between atoms: _339  and  _342
REMARK  143  A    between atoms: _342  and  _343
REMARK  144  A    between atoms: _346  and  _348
REMARK  145  A    between atoms: _348  and  _349
REMARK  146  A    between atoms: _348  and  _351
REMARK  147  A    between atoms: _351  and  _352
REMARK  148  A    between atoms: _355  and  _357
REMARK  149  A    between atoms: _357  and  _358
REMARK  150  A    between atoms: _357  and  _360
REMARK  151  A    between atoms: _363  and  _365
REMARK  152  A    between atoms: _365  and  _366
REMARK  153  A    between atoms: _365  and  _368
REMARK  154  A    between atoms: _368  and  _369
REMARK  155  A    between atoms: _369  and  _370
REMARK  156  A    between atoms: _370  and  _371
REMARK  157  A    between atoms: _371  and  _372
REMARK  158  A    between atoms: _376  and  _378
REMARK  159  A    between atoms: _378  and  _379
REMARK  160  A    between atoms: _378  and  _381
REMARK  161  A    between atoms: _381  and  _382
REMARK  162  A    between atoms: _385  and  _387
REMARK  163  A    between atoms: _387  and  _388
REMARK  164  A    between atoms: _390  and  _392
REMARK  165  A    between atoms: _392  and  _393
REMARK  166  A    between atoms: _395  and  _397
REMARK  167  A    between atoms: _397  and  _398
REMARK  168  A    between atoms: _397  and  _400
REMARK  169  A    between atoms: _400  and  _401
REMARK  170  A    between atoms: _404  and  _406
REMARK  171  A    between atoms: _406  and  _407
REMARK  172  A    between atoms: _409  and  _411
REMARK  173  A    between atoms: _411  and  _412
REMARK  174  A    between atoms: _414  and  _416
REMARK  175  A    between atoms: _416  and  _417
REMARK  176  A    between atoms: _416  and  _419
REMARK  177  A    between atoms: _419  and  _420
REMARK  178  A    between atoms: _423  and  _425
REMARK  179  A    between atoms: _425  and  _426
REMARK  180  A    between atoms: _425  and  _428
REMARK  181  A    between atoms: _428  and  _429
REMARK  182  A    between atoms: _433  and  _434
REMARK  183  A    between atoms: _439  and  _441
REMARK  184  A    between atoms: _441  and  _442
REMARK  185  A    between atoms: _441  and  _444
REMARK  186  A    between atoms: _444  and  _445
REMARK  187  A    between atoms: _449  and  _450
REMARK  188  A    between atoms: _455  and  _457
REMARK  189  A    between atoms: _457  and  _458
REMARK  190  A    between atoms: _457  and  _460
REMARK  191  A    between atoms: _463  and  _465
REMARK  192  A    between atoms: _465  and  _466
REMARK  193  A    between atoms: _465  and  _468
REMARK  194  A    between atoms: _468  and  _469
REMARK  195  A    between atoms: _474  and  _476
REMARK  196  A    between atoms: _476  and  _477
REMARK  197  A    between atoms: _476  and  _479
REMARK  198  A    between atoms: _479  and  _480
REMARK  199  A    between atoms: _483  and  _485
REMARK  200  A    between atoms: _485  and  _486
REMARK  201  A    between atoms: _485  and  _488
REMARK  202  A    between atoms: _488  and  _489
REMARK  203  A    between atoms: _492  and  _494
REMARK  204  A    between atoms: _494  and  _495
REMARK  205  A    between atoms: _497  and  _499
REMARK  206  A    between atoms: _499  and  _500
REMARK  207  A    between atoms: _499  and  _502
REMARK  208  A    between atoms: _502  and  _503
REMARK  209  A    between atoms: _503  and  _504
REMARK  210  A    between atoms: _504  and  _505
REMARK  211  A    between atoms: _514  and  _516
REMARK  212  A    between atoms: _516  and  _517
REMARK  213  A    between atoms: _516  and  _519
REMARK  214  A    between atoms: _519  and  _520
REMARK                            x       y       z     vdW  Elec       q    Type
REMARK                         _______ _______ _______ _____ _____    ______ ____
ROOT
ATOM      1  CA  LEU A   1       4.326  17.743  -4.408  0.00  0.00    +0.133 C 
ENDROOT
BRANCH   1   2
ATOM      2  N   LEU A   1       4.932  19.044  -4.629  0.00  0.00    -0.239 NA
ATOM      3  H   LEU A   1       5.394  19.523  -3.830  0.00  0.00    +0.142 HD
ENDBRANCH   1   2
BRANCH   1   4
ATOM      4  C   LEU A   1       3.030  18.010  -3.660  0.00  0.00    +0.224 C 
ATOM      5  O   LEU A   1       3.026  18.730  -2.667  0.00  0.00    -0.287 OA
ENDBRANCH   1   4
BRANCH   1   6
ATOM      6  CB  LEU A   1       5.247  16.872  -3.552  0.00  0.00    +0.025 C 
BRANCH   6   7
ATOM      7  CG  LEU A   1       6.662  16.801  -4.089  0.00  0.00    +0.002 C 
ATOM      8  CD2 LEU A   1       7.536  16.083  -3.090  0.00  0.00    +0.000 C 
ATOM      9  CD1 LEU A   1       6.668  16.137  -5.443  0.00  0.00    +0.000 C 
ENDBRANCH   6   7
ENDBRANCH   1   6
TORSDOF 4
REMARK  Name = ../refined-set-2016/1hpv/1hpv_pocket.pdb
REMARK  214 active torsions:
REMARK  status: ('A' for Active; 'I' for Inactive)
REMARK    1  A    between atoms: _1  and  _3
REMARK    2  A    between atoms: _3  and  _4
REMARK    3  A    between atoms: _3  and  _6
REMARK    4  A    between atoms: _6  and  _7
REMARK    5  A    between atoms: _7  and  _8
REMARK    6  A    between atoms: _8  and  _9
REMARK    7  A    between atoms: _18  and  _20
REMARK    8  A    between atoms: _20  and  _21
REMARK    9  A    between atoms: _20  and  _23
REMARK   10  A    between atoms: _23  and  _24
REMARK   11  A    between atoms: _27  and  _29
REMARK   12  A    between atoms: _29  and  _30
REMARK   13  A    between atoms: _29  and  _32
REMARK   14  A    between atoms: _32  and  _33
REMARK   15  A    between atoms: _36  and  _38
REMARK   16  A    between atoms: _38  and  _39
REMARK   17  A    between atoms: _38  and  _41
REMARK   18  A    between atoms: _41  and  _42
REMARK   19  A    between atoms: _45  and  _47
REMARK   20  A    between atoms: _47  and  _48
REMARK   21  A    between atoms: _47  and  _50
REMARK   22  A    between atoms: _50  and  _51
REMARK   23  A    between atoms: _54  and  _56
REMARK   24  A    between atoms: _56  and  _57
REMARK   25  A    between atoms: _59  and  _61
REMARK   26  A    between atoms: _61  and  _62
REMARK   27  A    between atoms: _65  and  _67
REMARK   28  A    between atoms: _67  and  _68
REMARK   29  A    between atoms: _67  and  _70
REMARK   30  A    between atoms: _70  and  _71
REMARK   31  A    between atoms: _74  and  _76
REMARK   32  A    between atoms: _76  and  _77
REMARK   33  A    between atoms: _76  and  _79
REMARK   34  A    between atoms: _79  and  _80
REMARK   35  A    between atoms: _83  and  _85
REMARK   36  A    between atoms: _85  and  _86
REMARK   37  A    between atoms: _85  and  _88
REMARK   38  A    between atoms: _88  and  _89
REMARK   39  A    between atoms: _92  and  _94
REMARK   40  A    between atoms: _94  and  _95
REMARK   41  A    between atoms: _94  and  _97
REMARK   42  A    between atoms: _100  and  _102
REMARK   43  A    between atoms: _102  and  _103
REMARK   44  A    between atoms: _102  and  _105
REMARK   45  A    between atoms: _105  and  _106
REMARK   46  A    between atoms: _106  and  _107
REMARK   47  A    between atoms: _107  and  _108
REMARK   48  A    between atoms: _108  and  _109
REMARK   49  A    between atoms: _113  and  _115
REMARK   50  A    between atoms: _115  and  _116
REMARK   51  A    between atoms: _115  and  _118
REMARK   52  A    between atoms: _118  and  _119
REMARK   53  A    between atoms: _119  and  _120
REMARK   54  A    between atoms: _122  and  _124
REMARK   55  A    between atoms: _124  and  _125
REMARK   56  A    between atoms: _124  and  _127
REMARK   57  A    between atoms: _127  and  _128
REMARK   58  A    between atoms: _131  and  _133
REMARK   59  A    between atoms: _133  and  _134
REMARK   60  A    between atoms: _136  and  _138
REMARK   61  A    between atoms: _138  and  _139
REMARK   62  A    between atoms: _141  and  _143
REMARK   63  A    between atoms: _143  and  _144
REMARK   64  A    between atoms: _143  and  _146
REMARK   65  A    between atoms: _146  and  _147
REMARK   66  A    between atoms: _150  and  _152
REMARK   67  A    between atoms: _152  and  _153
REMARK   68  A    between atoms: _155  and  _157
REMARK   69  A    between atoms: _157  and  _158
REMARK   70  A    between atoms: _160  and  _162
REMARK   71  A    between atoms: _162  and  _163
REMARK   72  A    between atoms: _162  and  _165
REMARK   73  A    between atoms: _165  and  _166
REMARK   74  A    between atoms: _169  and  _171
REMARK   75  A    between atoms: _171  and  _172
REMARK   76  A    between atoms: _171  and  _174
REMARK   77  A    between atoms: _174  and  _175
REMARK   78  A    between atoms: _178  and  _180
REMARK   79  A    between atoms: _180  and  _181
REMARK   80  A    between atoms: _180  and  _183
REMARK   81  A    between atoms: _183  and  _184
REMARK   82  A    between atoms: _188  and  _189
REMARK   83  A    between atoms: _194  and  _196
REMARK   84  A    between atoms: _196  and  _197
REMARK   85  A    between atoms: _196  and  _199
REMARK   86  A    between atoms: _202  and  _204
REMARK   87  A    between atoms: _204  and  _205
REMARK   88  A    between atoms: _204  and  _207
REMARK   89  A    between atoms: _207  and  _208
REMARK   90  A    between atoms: _213  and  _215
REMARK   91  A    between atoms: _215  and  _216
REMARK   92  A    between atoms: _215  and  _218
REMARK   93  A    between atoms: _218  and  _219
REMARK   94  A    between atoms: _222  and  _224
REMARK   95  A    between atoms: _224  and  _225
REMARK   96  A    between atoms: _224  and  _227
REMARK   97  A    between atoms: _227  and  _228
REMARK   98  A    between atoms: _231  and  _233
REMARK   99  A    between atoms: _233  and  _234
REMARK  100  A    between atoms: _236  and  _238
REMARK  101  A    between atoms: _238  and  _239
REMARK  102  A    between atoms: _238  and  _241
REMARK  103  A    between atoms: _241  and  _242
REMARK  104  A    between atoms: _242  and  _243
REMARK  105  A    between atoms: _243  and  _244
REMARK  106  A    between atoms: _253  and  _255
REMARK  107  A    between atoms: _255  and  _256
REMARK  108  A    between atoms: _255  and  _258
REMARK  109  A    between atoms: _258  and  _259
REMARK  110  A    between atoms: _264  and  _266
REMARK  111  A    between atoms: _266  and  _267
REMARK  112  A    between atoms: _266  and  _269
REMARK  113  A    between atoms: _269  and  _270
REMARK  114  A    between atoms: _270  and  _271
REMARK  115  A    between atoms: _271  and  _272
REMARK  116  A    between atoms: _281  and  _283
REMARK  117  A    between atoms: _283  and  _284
REMARK  118  A    between atoms: _283  and  _286
REMARK  119  A    between atoms: _286  and  _287
REMARK  120  A    between atoms: _290  and  _292
REMARK  121  A    between atoms: _292  and  _293
REMARK  122  A    between atoms: _292  and  _295
REMARK  123  A    between atoms: _295  and  _296
REMARK  124  A    between atoms: _299  and  _301
REMARK  125  A    between atoms: _301  and  _302
REMARK  126  A    between atoms: _301  and  _304
REMARK  127  A    between atoms: _304  and  _305
REMARK  128  A    between atoms: _308  and  _310
REMARK  129  A    between atoms: _310  and  _311
REMARK  130  A    between atoms: _310  and  _313
REMARK  131  A    between atoms: _313  and  _314
REMARK  132  A    between atoms: _317  and  _319
REMARK  133  A    between atoms: _319  and  _320
REMARK  134  A    between atoms: _322  and  _324
REMARK  135  A    between atoms: _324  and  _325
REMARK  136  A    between atoms: _328  and  _330
REMARK  137  A    between atoms: _330  and  _331
REMARK  138  A    between atoms: _330  and  _333
REMARK  139  A    between atoms: _333  and  _334
REMARK  140  A    between atoms: _337  and  _339
REMARK  141  A    between atoms: _339  and  _340
REMARK  142  A    between atoms: _339  and  _342
REMARK  143  A    between atoms: _342  and  _343
REMARK  144  A    between atoms: _346  and  _348
REMARK  145  A    between atoms: _348  and  _349
REMARK  146  A    between atoms: _348  and  _351
REMARK  147  A    between atoms: _351  and  _352
REMARK  148  A    between atoms: _355  and  _357
REMARK  149  A    between atoms: _357  and  _358
REMARK  150  A    between atoms: _357  and  _360
REMARK  151  A    between atoms: _363  and  _365
REMARK  152  A    between atoms: _365  and  _366
REMARK  153  A    between atoms: _365  and  _368
REMARK  154  A    between atoms: _368  and  _369
REMARK  155  A    between atoms: _369  and  _370
REMARK  156  A    between atoms: _370  and  _371
REMARK  157  A    between atoms: _371  and  _372
REMARK  158  A    between atoms: _376  and  _378
REMARK  159  A    between atoms: _378  and  _379
REMARK  160  A    between atoms: _378  and  _381
REMARK  161  A    between atoms: _381  and  _382
REMARK  162  A    between atoms: _385  and  _387
REMARK  163  A    between atoms: _387  and  _388
REMARK  164  A    between atoms: _390  and  _392
REMARK  165  A    between atoms: _392  and  _393
REMARK  166  A    between atoms: _395  and  _397
REMARK  167  A    between atoms: _397  and  _398
REMARK  168  A    between atoms: _397  and  _400
REMARK  169  A    between atoms: _400  and  _401
REMARK  170  A    between atoms: _404  and  _406
REMARK  171  A    between atoms: _406  and  _407
REMARK  172  A    between atoms: _409  and  _411
REMARK  173  A    between atoms: _411  and  _412
REMARK  174  A    between atoms: _414  and  _416
REMARK  175  A    between atoms: _416  and  _417
REMARK  176  A    between atoms: _416  and  _419
REMARK  177  A    between atoms: _419  and  _420
REMARK  178  A    between atoms: _423  and  _425
REMARK  179  A    between atoms: _425  and  _426
REMARK  180  A    between atoms: _425  and  _428
REMARK  181  A    between atoms: _428  and  _429
REMARK  182  A    between atoms: _433  and  _434
REMARK  183  A    between atoms: _439  and  _441
REMARK  184  A    between atoms: _441  and  _442
REMARK  185  A    between atoms: _441  and  _444
REMARK  186  A    between atoms: _444  and  _445
REMARK  187  A    between atoms: _449  and  _450
REMARK  188  A    between atoms: _455  and  _457
REMARK  189  A    between atoms: _457  and  _458
REMARK  190  A    between atoms: _457  and  _460
REMARK  191  A    between atoms: _463  and  _465
REMARK  192  A    between atoms: _465  and  _466
REMARK  193  A    between atoms: _465  and  _468
REMARK  194  A    between atoms: _468  and  _469
REMARK  195  A    between atoms: _474  and  _476
REMARK  196  A    between atoms: _476  and  _477
REMARK  197  A    between atoms: _476  and  _479
REMARK  198  A    between atoms: _479  and  _480
REMARK  199  A    between atoms: _483  and  _485
REMARK  200  A    between atoms: _485  and  _486
REMARK  201  A    between atoms: _485  and  _488
REMARK  202  A    between atoms: _488  and  _489
REMARK  203  A    between atoms: _492  and  _494
REMARK  204  A    between atoms: _494  and  _495
REMARK  205  A    between atoms: _497  and  _499
REMARK  206  A    between atoms: _499  and  _500
REMARK  207  A    between atoms: _499  and  _502
REMARK  208  A    between atoms: _502  and  _503
REMARK  209  A    between atoms: _503  and  _504
REMARK  210  A    between atoms: _504  and  _505
REMARK  211  A    between atoms: _514  and  _516
REMARK  212  A    between atoms: _516  and  _517
REMARK  213  A    between atoms: _516  and  _519
REMARK  214  A    between atoms: _519  and  _520
REMARK                            x       y       z     vdW  Elec       q    Type
REMARK                         _______ _______ _______ _____ _____    ______ ____
ROOT
ATOM      1  C   ILE A   5       6.646  23.398   2.649  0.00  0.00    +0.241 C 
ATOM      2  N   ILE A   6       7.420  24.466   2.788  0.00  0.00    -0.297 N 
ATOM      3  H   ILE A   6       7.452  24.953   3.706  0.00  0.00    +0.150 HD
ATOM      4  O   ILE A   5       6.501  22.829   1.575  0.00  0.00    -0.273 OA
ENDROOT
BRANCH   2   5
ATOM      5  CA  ILE A   6       8.226  24.973   1.685  0.00  0.00    +0.149 C 
BRANCH   5   6
ATOM      6  C   ILE A   6       9.585  24.377   2.009  0.00  0.00    +0.241 C 
ATOM      7  O   ILE A   6      10.094  24.611   3.090  0.00  0.00    -0.273 OA
ATOM      8  N   GLY A   7      10.126  23.558   1.112  0.00  0.00    -0.295 N 
ATOM      9  H   GLY A   7       9.628  23.381   0.216  0.00  0.00    +0.150 HD
BRANCH   8  10
ATOM     10  CA  GLY A   7      11.398  22.908   1.361  0.00  0.00    +0.176 C 
BRANCH  10  11
ATOM     11  C   GLY A   7      12.547  23.585   0.664  0.00  0.00    +0.243 C 
ATOM     12  N   ARG A   8      13.743  23.007   0.774  0.00  0.00    -0.297 N 
ATOM     13  H   ARG A   8      13.822  22.105   1.285  0.00  0.00    +0.150 HD
ATOM     14  O   GLY A   7      12.342  24.578  -0.030  0.00  0.00    -0.273 OA
BRANCH  12  15
ATOM     15  CA  ARG A   8      14.951  23.606   0.195  0.00  0.00    +0.149 C 
BRANCH  15  16
ATOM     16  C   ARG A   8      14.958  23.861  -1.309  0.00  0.00    +0.241 C 
ATOM     17  O   ARG A   8      15.717  24.707  -1.780  0.00  0.00    -0.273 OA
ATOM     18  N   ASN A   9      14.101  23.183  -2.066  0.00  0.00    -0.298 N 
ATOM     19  H   ASN A   9      13.471  22.477  -1.634  0.00  0.00    +0.150 HD
BRANCH  18  20
ATOM     20  CA  ASN A   9      14.045  23.430  -3.500  0.00  0.00    +0.146 C 
BRANCH  20  21
ATOM     21  C   ASN A   9      13.537  24.843  -3.824  0.00  0.00    +0.227 C 
ATOM     22  O   ASN A   9      13.904  25.423  -4.839  0.00  0.00    -0.286 OA
ENDBRANCH  20  21
BRANCH  20  23
ATOM     23  CB  ASN A   9      13.186  22.381  -4.211  0.00  0.00    +0.112 C 
BRANCH  23  24
ATOM     24  CG  ASN A   9      11.716  22.480  -3.868  0.00  0.00    +0.222 C 
ATOM     25  OD1 ASN A   9      11.344  23.020  -2.839  0.00  0.00    -0.275 OA
ATOM     26  ND2 ASN A   9      10.880  21.874  -4.699  0.00  0.00    -0.329 N 
ATOM     27 HD21 ASN A   9       9.863  21.846  -4.485  0.00  0.00    +0.145 HD
ATOM     28 HD22 ASN A   9      11.241  21.426  -5.565  0.00  0.00    +0.145 HD
ENDBRANCH  23  24
ENDBRANCH  20  23
ENDBRANCH  18  20
ENDBRANCH  15  16
BRANCH  15  29
ATOM     29  CB  ARG A   8      16.201  22.837   0.600  0.00  0.00    +0.033 C 
BRANCH  29  30
ATOM     30  CG  ARG A   8      16.438  22.750   2.097  0.00  0.00    +0.045 C 
BRANCH  30  31
ATOM     31  CD  ARG A   8      17.739  22.008   2.404  0.00  0.00    +0.174 C 
BRANCH  31  32
ATOM     32  NE  ARG A   8      17.790  20.686   1.785  0.00  0.00    -0.265 N 
ATOM     33  HE  ARG A   8      17.218  19.926   2.206  0.00  0.00    +0.259 HD
ATOM     34  CZ  ARG A   8      18.525  20.398   0.715  0.00  0.00    +0.342 C 
ATOM     35  NH2 ARG A   8      18.519  19.183   0.198  0.00  0.00    -0.292 N 
ATOM     36 HH21 ARG A   8      17.935  18.438   0.628  0.00  0.00    +0.255 HD
ATOM     37 HH22 ARG A   8      19.099  18.971  -0.639  0.00  0.00    +0.255 HD
ATOM     38  NH1 ARG A   8      19.250  21.346   0.142  0.00  0.00    -0.292 N 
ATOM     39 HH11 ARG A   8      19.243  22.311   0.529  0.00  0.00    +0.255 HD
ATOM     40 HH12 ARG A   8      19.826  21.125  -0.695  0.00  0.00    +0.255 HD
ENDBRANCH  31  32
ENDBRANCH  30  31
ENDBRANCH  29  30
ENDBRANCH  15  29
ENDBRANCH  12  15
ENDBRANCH  10  11
ENDBRANCH   8  10
ENDBRANCH   5   6
BRANCH   5  41
ATOM     41  CB  ILE A   6       8.289  26.522   1.705  0.00  0.00    +0.027 C 
ATOM     42  CG2 ILE A   6       9.087  27.041   0.512  0.00  0.00    +0.002 C 
BRANCH  41  43
ATOM     43  CG1 ILE A   6       6.874  27.117   1.738  0.00  0.00    +0.002 C 
ATOM     44  CD1 ILE A   6       6.011  26.745   0.557  0.00  0.00    +0.000 C 
ENDBRANCH  41  43
ENDBRANCH   5  41
ENDBRANCH   2   5
BRANCH   1  45
ATOM     45  CA  ILE A   5       5.880  22.942   3.884  0.00  0.00    +0.149 C 
BRANCH  45  48
ATOM     46  C   ASN A   4       3.509  23.195   4.315  0.00  0.00    +0.241 C 
ATOM     47  O   ASN A   4       3.732  23.972   5.244  0.00  0.00    -0.273 OA
ATOM     48  N   ILE A   5       4.484  22.642   3.602  0.00  0.00    -0.297 N 
ATOM     49  H   ILE A   5       4.246  21.985   2.831  0.00  0.00    +0.150 HD
BRANCH  46  50
ATOM     50  CA  ASN A   4       2.072  22.820   3.969  0.00  0.00    +0.158 C 
BRANCH  50  53
ATOM     51  C   VAL A   3       1.770  21.327   5.856  0.00  0.00    +0.241 C 
ATOM     52  O   VAL A   3       2.399  20.445   5.286  0.00  0.00    -0.273 OA
ATOM     53  N   ASN A   4       1.481  22.481   5.265  0.00  0.00    -0.297 N 
ATOM     54  H   ASN A   4       0.830  23.148   5.726  0.00  0.00    +0.150 HD
BRANCH  51  55
ATOM     55  CA  VAL A   3       1.189  21.066   7.243  0.00  0.00    +0.149 C 
BRANCH  55  58
ATOM     56  C   PRO A   2      -0.219  19.154   7.832  0.00  0.00    +0.241 C 
ATOM     57  O   PRO A   2      -1.078  19.872   8.364  0.00  0.00    -0.273 OA
ATOM     58  N   VAL A   3       0.888  19.644   7.282  0.00  0.00    -0.297 N 
ATOM     59  H   VAL A   3       1.569  18.980   6.861  0.00  0.00    +0.150 HD
BRANCH  56  62
ATOM     60  C   THR A   1      -0.011  16.912   5.467  0.00  0.00    +0.244 C 
ATOM     61  N   PRO A   2       0.421  16.949   6.747  0.00  0.00    -0.272 N 
ATOM     62  CA  PRO A   2      -0.378  17.621   7.786  0.00  0.00    +0.152 C 
ATOM     63  CB  PRO A   2       0.117  16.955   9.071  0.00  0.00    +0.031 C 
ATOM     64  CG  PRO A   2       1.568  16.714   8.782  0.00  0.00    +0.024 C 
ATOM     65  CD  PRO A   2       1.545  16.200   7.347  0.00  0.00    +0.094 C 
ATOM     66  O   THR A   1      -1.081  17.415   5.126  0.00  0.00    -0.273 OA
BRANCH  60  67
ATOM     67  CA  THR A   1       0.865  16.202   4.422  0.00  0.00    +0.172 C 
BRANCH  67  68
ATOM     68  CB  THR A   1       1.866  17.195   3.842  0.00  0.00    +0.135 C 
ATOM     69  CG2 THR A   1       1.159  18.365   3.239  0.00  0.00    +0.034 C 
BRANCH  68  70
ATOM     70  OG1 THR A   1       2.721  17.661   4.886  0.00  0.00    -0.383 OA
ATOM     71  HG1 THR A   1       2.176  18.105   5.583  0.00  0.00    +0.210 HD
ENDBRANCH  68  70
ENDBRANCH  67  68
BRANCH  67  72
ATOM     72  N   THR A   1      -0.019  15.678   3.392  0.00  0.00    -0.236 NA
ATOM     73  H   THR A   1      -0.173  16.217   2.516  0.00  0.00    +0.142 HD
ENDBRANCH  67  72
ENDBRANCH  60  67
ENDBRANCH  56  62
ENDBRANCH  55  58
BRANCH  55  74
ATOM     74  CB  VAL A   3       2.273  21.441   8.320  0.00  0.00    +0.027 C 
ATOM     75  CG2 VAL A   3       1.963  20.813   9.675  0.00  0.00    +0.002 C 
ATOM     76  CG1 VAL A   3       2.361  22.942   8.476  0.00  0.00    +0.002 C 
ENDBRANCH  55  74
ENDBRANCH  51  55
ENDBRANCH  50  53
BRANCH  50  77
ATOM     77  CB  ASN A   4       1.396  24.048   3.366  0.00  0.00    +0.114 C 
BRANCH  77  78
ATOM     78  CG  ASN A   4      -0.042  23.815   3.039  0.00  0.00    +0.222 C 
ATOM     79  ND2 ASN A   4      -0.917  24.626   3.597  0.00  0.00    -0.329 N 
ATOM     80 HD21 ASN A   4      -0.593  25.386   4.228  0.00  0.00    +0.145 HD
ATOM     81 HD22 ASN A   4      -1.932  24.506   3.407  0.00  0.00    +0.145 HD
ATOM     82  OD1 ASN A   4      -0.367  22.909   2.293  0.00  0.00    -0.275 OA
ENDBRANCH  77  78
ENDBRANCH  50  77
ENDBRANCH  46  50
ENDBRANCH  45  48
BRANCH  45  83
ATOM     83  CB  ILE A   5       6.619  21.733   4.576  0.00  0.00    +0.027 C 
ATOM     84  CG2 ILE A   5       6.107  21.529   5.986  0.00  0.00    +0.002 C 
BRANCH  83  85
ATOM     85  CG1 ILE A   5       6.379  20.437   3.830  0.00  0.00    +0.002 C 
ATOM     86  CD1 ILE A   5       6.942  19.259   4.537  0.00  0.00    +0.000 C 
ENDBRANCH  83  85
ENDBRANCH  45  83
ENDBRANCH   1  45
TORSDOF 32
REMARK  Name = ../refined-set-2016/1hpv/1hpv_pocket.pdb
REMARK  214 active torsions:
REMARK  status: ('A' for Active; 'I' for Inactive)
REMARK    1  A    between atoms: _1  and  _3
REMARK    2  A    between atoms: _3  and  _4
REMARK    3  A    between atoms: _3  and  _6
REMARK    4  A    between atoms: _6  and  _7
REMARK    5  A    between atoms: _7  and  _8
REMARK    6  A    between atoms: _8  and  _9
REMARK    7  A    between atoms: _18  and  _20
REMARK    8  A    between atoms: _20  and  _21
REMARK    9  A    between atoms: _20  and  _23
REMARK   10  A    between atoms: _23  and  _24
REMARK   11  A    between atoms: _27  and  _29
REMARK   12  A    between atoms: _29  and  _30
REMARK   13  A    between atoms: _29  and  _32
REMARK   14  A    between atoms: _32  and  _33
REMARK   15  A    between atoms: _36  and  _38
REMARK   16  A    between atoms: _38  and  _39
REMARK   17  A    between atoms: _38  and  _41
REMARK   18  A    between atoms: _41  and  _42
REMARK   19  A    between atoms: _45  and  _47
REMARK   20  A    between atoms: _47  and  _48
REMARK   21  A    between atoms: _47  and  _50
REMARK   22  A    between atoms: _50  and  _51
REMARK   23  A    between atoms: _54  and  _56
REMARK   24  A    between atoms: _56  and  _57
REMARK   25  A    between atoms: _59  and  _61
REMARK   26  A    between atoms: _61  and  _62
REMARK   27  A    between atoms: _65  and  _67
REMARK   28  A    between atoms: _67  and  _68
REMARK   29  A    between atoms: _67  and  _70
REMARK   30  A    between atoms: _70  and  _71
REMARK   31  A    between atoms: _74  and  _76
REMARK   32  A    between atoms: _76  and  _77
REMARK   33  A    between atoms: _76  and  _79
REMARK   34  A    between atoms: _79  and  _80
REMARK   35  A    between atoms: _83  and  _85
REMARK   36  A    between atoms: _85  and  _86
REMARK   37  A    between atoms: _85  and  _88
REMARK   38  A    between atoms: _88  and  _89
REMARK   39  A    between atoms: _92  and  _94
REMARK   40  A    between atoms: _94  and  _95
REMARK   41  A    between atoms: _94  and  _97
REMARK   42  A    between atoms: _100  and  _102
REMARK   43  A    between atoms: _102  and  _103
REMARK   44  A    between atoms: _102  and  _105
REMARK   45  A    between atoms: _105  and  _106
REMARK   46  A    between atoms: _106  and  _107
REMARK   47  A    between atoms: _107  and  _108
REMARK   48  A    between atoms: _108  and  _109
REMARK   49  A    between atoms: _113  and  _115
REMARK   50  A    between atoms: _115  and  _116
REMARK   51  A    between atoms: _115  and  _118
REMARK   52  A    between atoms: _118  and  _119
REMARK   53  A    between atoms: _119  and  _120
REMARK   54  A    between atoms: _122  and  _124
REMARK   55  A    between atoms: _124  and  _125
REMARK   56  A    between atoms: _124  and  _127
REMARK   57  A    between atoms: _127  and  _128
REMARK   58  A    between atoms: _131  and  _133
REMARK   59  A    between atoms: _133  and  _134
REMARK   60  A    between atoms: _136  and  _138
REMARK   61  A    between atoms: _138  and  _139
REMARK   62  A    between atoms: _141  and  _143
REMARK   63  A    between atoms: _143  and  _144
REMARK   64  A    between atoms: _143  and  _146
REMARK   65  A    between atoms: _146  and  _147
REMARK   66  A    between atoms: _150  and  _152
REMARK   67  A    between atoms: _152  and  _153
REMARK   68  A    between atoms: _155  and  _157
REMARK   69  A    between atoms: _157  and  _158
REMARK   70  A    between atoms: _160  and  _162
REMARK   71  A    between atoms: _162  and  _163
REMARK   72  A    between atoms: _162  and  _165
REMARK   73  A    between atoms: _165  and  _166
REMARK   74  A    between atoms: _169  and  _171
REMARK   75  A    between atoms: _171  and  _172
REMARK   76  A    between atoms: _171  and  _174
REMARK   77  A    between atoms: _174  and  _175
REMARK   78  A    between atoms: _178  and  _180
REMARK   79  A    between atoms: _180  and  _181
REMARK   80  A    between atoms: _180  and  _183
REMARK   81  A    between atoms: _183  and  _184
REMARK   82  A    between atoms: _188  and  _189
REMARK   83  A    between atoms: _194  and  _196
REMARK   84  A    between atoms: _196  and  _197
REMARK   85  A    between atoms: _196  and  _199
REMARK   86  A    between atoms: _202  and  _204
REMARK   87  A    between atoms: _204  and  _205
REMARK   88  A    between atoms: _204  and  _207
REMARK   89  A    between atoms: _207  and  _208
REMARK   90  A    between atoms: _213  and  _215
REMARK   91  A    between atoms: _215  and  _216
REMARK   92  A    between atoms: _215  and  _218
REMARK   93  A    between atoms: _218  and  _219
REMARK   94  A    between atoms: _222  and  _224
REMARK   95  A    between atoms: _224  and  _225
REMARK   96  A    between atoms: _224  and  _227
REMARK   97  A    between atoms: _227  and  _228
REMARK   98  A    between atoms: _231  and  _233
REMARK   99  A    between atoms: _233  and  _234
REMARK  100  A    between atoms: _236  and  _238
REMARK  101  A    between atoms: _238  and  _239
REMARK  102  A    between atoms: _238  and  _241
REMARK  103  A    between atoms: _241  and  _242
REMARK  104  A    between atoms: _242  and  _243
REMARK  105  A    between atoms: _243  and  _244
REMARK  106  A    between atoms: _253  and  _255
REMARK  107  A    between atoms: _255  and  _256
REMARK  108  A    between atoms: _255  and  _258
REMARK  109  A    between atoms: _258  and  _259
REMARK  110  A    between atoms: _264  and  _266
REMARK  111  A    between atoms: _266  and  _267
REMARK  112  A    between atoms: _266  and  _269
REMARK  113  A    between atoms: _269  and  _270
REMARK  114  A    between atoms: _270  and  _271
REMARK  115  A    between atoms: _271  and  _272
REMARK  116  A    between atoms: _281  and  _283
REMARK  117  A    between atoms: _283  and  _284
REMARK  118  A    between atoms: _283  and  _286
REMARK  119  A    between atoms: _286  and  _287
REMARK  120  A    between atoms: _290  and  _292
REMARK  121  A    between atoms: _292  and  _293
REMARK  122  A    between atoms: _292  and  _295
REMARK  123  A    between atoms: _295  and  _296
REMARK  124  A    between atoms: _299  and  _301
REMARK  125  A    between atoms: _301  and  _302
REMARK  126  A    between atoms: _301  and  _304
REMARK  127  A    between atoms: _304  and  _305
REMARK  128  A    between atoms: _308  and  _310
REMARK  129  A    between atoms: _310  and  _311
REMARK  130  A    between atoms: _310  and  _313
REMARK  131  A    between atoms: _313  and  _314
REMARK  132  A    between atoms: _317  and  _319
REMARK  133  A    between atoms: _319  and  _320
REMARK  134  A    between atoms: _322  and  _324
REMARK  135  A    between atoms: _324  and  _325
REMARK  136  A    between atoms: _328  and  _330
REMARK  137  A    between atoms: _330  and  _331
REMARK  138  A    between atoms: _330  and  _333
REMARK  139  A    between atoms: _333  and  _334
REMARK  140  A    between atoms: _337  and  _339
REMARK  141  A    between atoms: _339  and  _340
REMARK  142  A    between atoms: _339  and  _342
REMARK  143  A    between atoms: _342  and  _343
REMARK  144  A    between atoms: _346  and  _348
REMARK  145  A    between atoms: _348  and  _349
REMARK  146  A    between atoms: _348  and  _351
REMARK  147  A    between atoms: _351  and  _352
REMARK  148  A    between atoms: _355  and  _357
REMARK  149  A    between atoms: _357  and  _358
REMARK  150  A    between atoms: _357  and  _360
REMARK  151  A    between atoms: _363  and  _365
REMARK  152  A    between atoms: _365  and  _366
REMARK  153  A    between atoms: _365  and  _368
REMARK  154  A    between atoms: _368  and  _369
REMARK  155  A    between atoms: _369  and  _370
REMARK  156  A    between atoms: _370  and  _371
REMARK  157  A    between atoms: _371  and  _372
REMARK  158  A    between atoms: _376  and  _378
REMARK  159  A    between atoms: _378  and  _379
REMARK  160  A    between atoms: _378  and  _381
REMARK  161  A    between atoms: _381  and  _382
REMARK  162  A    between atoms: _385  and  _387
REMARK  163  A    between atoms: _387  and  _388
REMARK  164  A    between atoms: _390  and  _392
REMARK  165  A    between atoms: _392  and  _393
REMARK  166  A    between atoms: _395  and  _397
REMARK  167  A    between atoms: _397  and  _398
REMARK  168  A    between atoms: _397  and  _400
REMARK  169  A    between atoms: _400  and  _401
REMARK  170  A    between atoms: _404  and  _406
REMARK  171  A    between atoms: _406  and  _407
REMARK  172  A    between atoms: _409  and  _411
REMARK  173  A    between atoms: _411  and  _412
REMARK  174  A    between atoms: _414  and  _416
REMARK  175  A    between atoms: _416  and  _417
REMARK  176  A    between atoms: _416  and  _419
REMARK  177  A    between atoms: _419  and  _420
REMARK  178  A    between atoms: _423  and  _425
REMARK  179  A    between atoms: _425  and  _426
REMARK  180  A    between atoms: _425  and  _428
REMARK  181  A    between atoms: _428  and  _429
REMARK  182  A    between atoms: _433  and  _434
REMARK  183  A    between atoms: _439  and  _441
REMARK  184  A    between atoms: _441  and  _442
REMARK  185  A    between atoms: _441  and  _444
REMARK  186  A    between atoms: _444  and  _445
REMARK  187  A    between atoms: _449  and  _450
REMARK  188  A    between atoms: _455  and  _457
REMARK  189  A    between atoms: _457  and  _458
REMARK  190  A    between atoms: _457  and  _460
REMARK  191  A    between atoms: _463  and  _465
REMARK  192  A    between atoms: _465  and  _466
REMARK  193  A    between atoms: _465  and  _468
REMARK  194  A    between atoms: _468  and  _469
REMARK  195  A    between atoms: _474  and  _476
REMARK  196  A    between atoms: _476  and  _477
REMARK  197  A    between atoms: _476  and  _479
REMARK  198  A    between atoms: _479  and  _480
REMARK  199  A    between atoms: _483  and  _485
REMARK  200  A    between atoms: _485  and  _486
REMARK  201  A    between atoms: _485  and  _488
REMARK  202  A    between atoms: _488  and  _489
REMARK  203  A    between atoms: _492  and  _494
REMARK  204  A    between atoms: _494  and  _495
REMARK  205  A    between atoms: _497  and  _499
REMARK  206  A    between atoms: _499  and  _500
REMARK  207  A    between atoms: _499  and  _502
REMARK  208  A    between atoms: _502  and  _503
REMARK  209  A    between atoms: _503  and  _504
REMARK  210  A    between atoms: _504  and  _505
REMARK  211  A    between atoms: _514  and  _516
REMARK  212  A    between atoms: _516  and  _517
REMARK  213  A    between atoms: _516  and  _519
REMARK  214  A    between atoms: _519  and  _520
REMARK                            x       y       z     vdW  Elec       q    Type
REMARK                         _______ _______ _______ _____ _____    ______ ____
ROOT
ATOM      1  NE  ARG A   1      18.461  15.597   3.575  0.00  0.00    -0.265 N 
ATOM      2  CZ  ARG A   1      18.094  14.375   3.951  0.00  0.00    +0.342 C 
ATOM      3  NH2 ARG A   1      18.925  13.594   4.633  0.00  0.00    -0.292 N 
ATOM      4 HH21 ARG A   1      18.625  12.641   4.920  0.00  0.00    +0.255 HD
ATOM      5 HH22 ARG A   1      19.876  13.936   4.879  0.00  0.00    +0.255 HD
ATOM      6  NH1 ARG A   1      16.885  13.931   3.639  0.00  0.00    -0.292 N 
ATOM      7 HH11 ARG A   1      16.591  12.977   3.929  0.00  0.00    +0.255 HD
ATOM      8 HH12 ARG A   1      16.231  14.537   3.104  0.00  0.00    +0.255 HD
ATOM      9  HE  ARG A   1      17.772  16.165   3.042  0.00  0.00    +0.259 HD
ENDROOT
BRANCH   1  10
ATOM     10  CD  ARG A   1      19.753  16.195   3.854  0.00  0.00    +0.174 C 
BRANCH  10  11
ATOM     11  CG  ARG A   1      19.826  17.616   3.359  0.00  0.00    +0.045 C 
BRANCH  11  12
ATOM     12  CB  ARG A   1      20.997  18.315   3.995  0.00  0.00    +0.029 C 
BRANCH  12  13
ATOM     13  CA  ARG A   1      21.103  19.800   3.668  0.00  0.00    +0.133 C 
BRANCH  13  14
ATOM     14  N   ARG A   1      21.705  19.984   2.354  0.00  0.00    -0.239 NA
ATOM     15  H   ARG A   1      21.876  19.158   1.746  0.00  0.00    +0.142 HD
ENDBRANCH  13  14
BRANCH  13  16
ATOM     16  C   ARG A   1      21.988  20.473   4.721  0.00  0.00    +0.224 C 
ATOM     17  O   ARG A   1      23.216  20.313   4.694  0.00  0.00    -0.287 OA
ENDBRANCH  13  16
ENDBRANCH  12  13
ENDBRANCH  11  12
ENDBRANCH  10  11
ENDBRANCH   1  10
TORSDOF 6
REMARK  Name = ../refined-set-2016/1hpv/1hpv_pocket.pdb
REMARK  214 active torsions:
REMARK  status: ('A' for Active; 'I' for Inactive)
REMARK    1  A    between atoms: _1  and  _3
REMARK    2  A    between atoms: _3  and  _4
REMARK    3  A    between atoms: _3  and  _6
REMARK    4  A    between atoms: _6  and  _7
REMARK    5  A    between atoms: _7  and  _8
REMARK    6  A    between atoms: _8  and  _9
REMARK    7  A    between atoms: _18  and  _20
REMARK    8  A    between atoms: _20  and  _21
REMARK    9  A    between atoms: _20  and  _23
REMARK   10  A    between atoms: _23  and  _24
REMARK   11  A    between atoms: _27  and  _29
REMARK   12  A    between atoms: _29  and  _30
REMARK   13  A    between atoms: _29  and  _32
REMARK   14  A    between atoms: _32  and  _33
REMARK   15  A    between atoms: _36  and  _38
REMARK   16  A    between atoms: _38  and  _39
REMARK   17  A    between atoms: _38  and  _41
REMARK   18  A    between atoms: _41  and  _42
REMARK   19  A    between atoms: _45  and  _47
REMARK   20  A    between atoms: _47  and  _48
REMARK   21  A    between atoms: _47  and  _50
REMARK   22  A    between atoms: _50  and  _51
REMARK   23  A    between atoms: _54  and  _56
REMARK   24  A    between atoms: _56  and  _57
REMARK   25  A    between atoms: _59  and  _61
REMARK   26  A    between atoms: _61  and  _62
REMARK   27  A    between atoms: _65  and  _67
REMARK   28  A    between atoms: _67  and  _68
REMARK   29  A    between atoms: _67  and  _70
REMARK   30  A    between atoms: _70  and  _71
REMARK   31  A    between atoms: _74  and  _76
REMARK   32  A    between atoms: _76  and  _77
REMARK   33  A    between atoms: _76  and  _79
REMARK   34  A    between atoms: _79  and  _80
REMARK   35  A    between atoms: _83  and  _85
REMARK   36  A    between atoms: _85  and  _86
REMARK   37  A    between atoms: _85  and  _88
REMARK   38  A    between atoms: _88  and  _89
REMARK   39  A    between atoms: _92  and  _94
REMARK   40  A    between atoms: _94  and  _95
REMARK   41  A    between atoms: _94  and  _97
REMARK   42  A    between atoms: _100  and  _102
REMARK   43  A    between atoms: _102  and  _103
REMARK   44  A    between atoms: _102  and  _105
REMARK   45  A    between atoms: _105  and  _106
REMARK   46  A    between atoms: _106  and  _107
REMARK   47  A    between atoms: _107  and  _108
REMARK   48  A    between atoms: _108  and  _109
REMARK   49  A    between atoms: _113  and  _115
REMARK   50  A    between atoms: _115  and  _116
REMARK   51  A    between atoms: _115  and  _118
REMARK   52  A    between atoms: _118  and  _119
REMARK   53  A    between atoms: _119  and  _120
REMARK   54  A    between atoms: _122  and  _124
REMARK   55  A    between atoms: _124  and  _125
REMARK   56  A    between atoms: _124  and  _127
REMARK   57  A    between atoms: _127  and  _128
REMARK   58  A    between atoms: _131  and  _133
REMARK   59  A    between atoms: _133  and  _134
REMARK   60  A    between atoms: _136  and  _138
REMARK   61  A    between atoms: _138  and  _139
REMARK   62  A    between atoms: _141  and  _143
REMARK   63  A    between atoms: _143  and  _144
REMARK   64  A    between atoms: _143  and  _146
REMARK   65  A    between atoms: _146  and  _147
REMARK   66  A    between atoms: _150  and  _152
REMARK   67  A    between atoms: _152  and  _153
REMARK   68  A    between atoms: _155  and  _157
REMARK   69  A    between atoms: _157  and  _158
REMARK   70  A    between atoms: _160  and  _162
REMARK   71  A    between atoms: _162  and  _163
REMARK   72  A    between atoms: _162  and  _165
REMARK   73  A    between atoms: _165  and  _166
REMARK   74  A    between atoms: _169  and  _171
REMARK   75  A    between atoms: _171  and  _172
REMARK   76  A    between atoms: _171  and  _174
REMARK   77  A    between atoms: _174  and  _175
REMARK   78  A    between atoms: _178  and  _180
REMARK   79  A    between atoms: _180  and  _181
REMARK   80  A    between atoms: _180  and  _183
REMARK   81  A    between atoms: _183  and  _184
REMARK   82  A    between atoms: _188  and  _189
REMARK   83  A    between atoms: _194  and  _196
REMARK   84  A    between atoms: _196  and  _197
REMARK   85  A    between atoms: _196  and  _199
REMARK   86  A    between atoms: _202  and  _204
REMARK   87  A    between atoms: _204  and  _205
REMARK   88  A    between atoms: _204  and  _207
REMARK   89  A    between atoms: _207  and  _208
REMARK   90  A    between atoms: _213  and  _215
REMARK   91  A    between atoms: _215  and  _216
REMARK   92  A    between atoms: _215  and  _218
REMARK   93  A    between atoms: _218  and  _219
REMARK   94  A    between atoms: _222  and  _224
REMARK   95  A    between atoms: _224  and  _225
REMARK   96  A    between atoms: _224  and  _227
REMARK   97  A    between atoms: _227  and  _228
REMARK   98  A    between atoms: _231  and  _233
REMARK   99  A    between atoms: _233  and  _234
REMARK  100  A    between atoms: _236  and  _238
REMARK  101  A    between atoms: _238  and  _239
REMARK  102  A    between atoms: _238  and  _241
REMARK  103  A    between atoms: _241  and  _242
REMARK  104  A    between atoms: _242  and  _243
REMARK  105  A    between atoms: _243  and  _244
REMARK  106  A    between atoms: _253  and  _255
REMARK  107  A    between atoms: _255  and  _256
REMARK  108  A    between atoms: _255  and  _258
REMARK  109  A    between atoms: _258  and  _259
REMARK  110  A    between atoms: _264  and  _266
REMARK  111  A    between atoms: _266  and  _267
REMARK  112  A    between atoms: _266  and  _269
REMARK  113  A    between atoms: _269  and  _270
REMARK  114  A    between atoms: _270  and  _271
REMARK  115  A    between atoms: _271  and  _272
REMARK  116  A    between atoms: _281  and  _283
REMARK  117  A    between atoms: _283  and  _284
REMARK  118  A    between atoms: _283  and  _286
REMARK  119  A    between atoms: _286  and  _287
REMARK  120  A    between atoms: _290  and  _292
REMARK  121  A    between atoms: _292  and  _293
REMARK  122  A    between atoms: _292  and  _295
REMARK  123  A    between atoms: _295  and  _296
REMARK  124  A    between atoms: _299  and  _301
REMARK  125  A    between atoms: _301  and  _302
REMARK  126  A    between atoms: _301  and  _304
REMARK  127  A    between atoms: _304  and  _305
REMARK  128  A    between atoms: _308  and  _310
REMARK  129  A    between atoms: _310  and  _311
REMARK  130  A    between atoms: _310  and  _313
REMARK  131  A    between atoms: _313  and  _314
REMARK  132  A    between atoms: _317  and  _319
REMARK  133  A    between atoms: _319  and  _320
REMARK  134  A    between atoms: _322  and  _324
REMARK  135  A    between atoms: _324  and  _325
REMARK  136  A    between atoms: _328  and  _330
REMARK  137  A    between atoms: _330  and  _331
REMARK  138  A    between atoms: _330  and  _333
REMARK  139  A    between atoms: _333  and  _334
REMARK  140  A    between atoms: _337  and  _339
REMARK  141  A    between atoms: _339  and  _340
REMARK  142  A    between atoms: _339  and  _342
REMARK  143  A    between atoms: _342  and  _343
REMARK  144  A    between atoms: _346  and  _348
REMARK  145  A    between atoms: _348  and  _349
REMARK  146  A    between atoms: _348  and  _351
REMARK  147  A    between atoms: _351  and  _352
REMARK  148  A    between atoms: _355  and  _357
REMARK  149  A    between atoms: _357  and  _358
REMARK  150  A    between atoms: _357  and  _360
REMARK  151  A    between atoms: _363  and  _365
REMARK  152  A    between atoms: _365  and  _366
REMARK  153  A    between atoms: _365  and  _368
REMARK  154  A    between atoms: _368  and  _369
REMARK  155  A    between atoms: _369  and  _370
REMARK  156  A    between atoms: _370  and  _371
REMARK  157  A    between atoms: _371  and  _372
REMARK  158  A    between atoms: _376  and  _378
REMARK  159  A    between atoms: _378  and  _379
REMARK  160  A    between atoms: _378  and  _381
REMARK  161  A    between atoms: _381  and  _382
REMARK  162  A    between atoms: _385  and  _387
REMARK  163  A    between atoms: _387  and  _388
REMARK  164  A    between atoms: _390  and  _392
REMARK  165  A    between atoms: _392  and  _393
REMARK  166  A    between atoms: _395  and  _397
REMARK  167  A    between atoms: _397  and  _398
REMARK  168  A    between atoms: _397  and  _400
REMARK  169  A    between atoms: _400  and  _401
REMARK  170  A    between atoms: _404  and  _406
REMARK  171  A    between atoms: _406  and  _407
REMARK  172  A    between atoms: _409  and  _411
REMARK  173  A    between atoms: _411  and  _412
REMARK  174  A    between atoms: _414  and  _416
REMARK  175  A    between atoms: _416  and  _417
REMARK  176  A    between atoms: _416  and  _419
REMARK  177  A    between atoms: _419  and  _420
REMARK  178  A    between atoms: _423  and  _425
REMARK  179  A    between atoms: _425  and  _426
REMARK  180  A    between atoms: _425  and  _428
REMARK  181  A    between atoms: _428  and  _429
REMARK  182  A    between atoms: _433  and  _434
REMARK  183  A    between atoms: _439  and  _441
REMARK  184  A    between atoms: _441  and  _442
REMARK  185  A    between atoms: _441  and  _444
REMARK  186  A    between atoms: _444  and  _445
REMARK  187  A    between atoms: _449  and  _450
REMARK  188  A    between atoms: _455  and  _457
REMARK  189  A    between atoms: _457  and  _458
REMARK  190  A    between atoms: _457  and  _460
REMARK  191  A    between atoms: _463  and  _465
REMARK  192  A    between atoms: _465  and  _466
REMARK  193  A    between atoms: _465  and  _468
REMARK  194  A    between atoms: _468  and  _469
REMARK  195  A    between atoms: _474  and  _476
REMARK  196  A    between atoms: _476  and  _477
REMARK  197  A    between atoms: _476  and  _479
REMARK  198  A    between atoms: _479  and  _480
REMARK  199  A    between atoms: _483  and  _485
REMARK  200  A    between atoms: _485  and  _486
REMARK  201  A    between atoms: _485  and  _488
REMARK  202  A    between atoms: _488  and  _489
REMARK  203  A    between atoms: _492  and  _494
REMARK  204  A    between atoms: _494  and  _495
REMARK  205  A    between atoms: _497  and  _499
REMARK  206  A    between atoms: _499  and  _500
REMARK  207  A    between atoms: _499  and  _502
REMARK  208  A    between atoms: _502  and  _503
REMARK  209  A    between atoms: _503  and  _504
REMARK  210  A    between atoms: _504  and  _505
REMARK  211  A    between atoms: _514  and  _516
REMARK  212  A    between atoms: _516  and  _517
REMARK  213  A    between atoms: _516  and  _519
REMARK  214  A    between atoms: _519  and  _520
REMARK                            x       y       z     vdW  Elec       q    Type
REMARK                         _______ _______ _______ _____ _____    ______ ____
ROOT
ATOM      1  C   GLY A   5       9.664  21.679  11.683  0.00  0.00    +0.243 C 
ATOM      2  N   ALA A   6      10.659  21.481  12.550  0.00  0.00    -0.297 N 
ATOM      3  H   ALA A   6      11.528  22.044  12.451  0.00  0.00    +0.150 HD
ATOM      4  O   GLY A   5       8.661  20.988  11.654  0.00  0.00    -0.273 OA
ENDROOT
BRANCH   2   5
ATOM      5  CA  ALA A   6      10.575  20.504  13.632  0.00  0.00    +0.149 C 
ATOM      6  CB  ALA A   6      11.831  19.638  13.675  0.00  0.00    +0.031 C 
BRANCH   5   7
ATOM      7  C   ALA A   6      10.433  21.298  14.918  0.00  0.00    +0.241 C 
ATOM      8  N   ASP A   7       9.350  21.074  15.654  0.00  0.00    -0.297 N 
ATOM      9  H   ASP A   7       8.647  20.375  15.340  0.00  0.00    +0.150 HD
ATOM     10  O   ALA A   6      11.262  22.144  15.216  0.00  0.00    -0.273 OA
BRANCH   8  11
ATOM     11  CA  ASP A   7       9.140  21.801  16.898  0.00  0.00    +0.160 C 
BRANCH  11  12
ATOM     12  C   ASP A   7      10.091  21.275  17.944  0.00  0.00    +0.241 C 
ATOM     13  O   ASP A   7      10.591  22.032  18.767  0.00  0.00    -0.273 OA
ATOM     14  N   ASP A   8      10.267  19.954  17.940  0.00  0.00    -0.297 N 
ATOM     15  H   ASP A   8       9.777  19.395  17.212  0.00  0.00    +0.150 HD
BRANCH  14  16
ATOM     16  CA  ASP A   8      11.109  19.248  18.901  0.00  0.00    +0.160 C 
BRANCH  16  17
ATOM     17  C   ASP A   8      12.306  18.594  18.232  0.00  0.00    +0.241 C 
ATOM     18  N   THR A   9      13.277  18.246  19.064  0.00  0.00    -0.295 N 
ATOM     19  H   THR A   9      13.150  18.449  20.076  0.00  0.00    +0.150 HD
ATOM     20  O   ASP A   8      12.294  18.319  17.034  0.00  0.00    -0.273 OA
BRANCH  18  21
ATOM     21  CA  THR A   9      14.506  17.600  18.648  0.00  0.00    +0.176 C 
BRANCH  21  22
ATOM     22  C   THR A   9      14.310  16.115  18.817  0.00  0.00    +0.243 C 
ATOM     23  O   THR A   9      13.931  15.641  19.884  0.00  0.00    -0.273 OA
ATOM     24  N   VAL A  10      14.519  15.388  17.739  0.00  0.00    -0.298 N 
ATOM     25  H   VAL A  10      14.805  15.854  16.855  0.00  0.00    +0.150 HD
BRANCH  24  26
ATOM     26  CA  VAL A  10      14.357  13.957  17.766  0.00  0.00    +0.137 C 
BRANCH  26  27
ATOM     27  CB  VAL A  10      13.055  13.538  17.044  0.00  0.00    +0.026 C 
ATOM     28  CG2 VAL A  10      12.914  12.033  17.040  0.00  0.00    +0.002 C 
ATOM     29  CG1 VAL A  10      12.993  14.105  15.649  0.00  0.00    +0.002 C 
ENDBRANCH  26  27
BRANCH  26  30
ATOM     30  C   VAL A  10      15.599  13.305  17.175  0.00  0.00    +0.227 C 
ATOM     31  O   VAL A  10      16.007  13.612  16.060  0.00  0.00    -0.286 OA
ENDBRANCH  26  30
ENDBRANCH  24  26
ENDBRANCH  21  22
BRANCH  21  32
ATOM     32  CB  THR A   9      15.662  18.072  19.515  0.00  0.00    +0.137 C 
ATOM     33  CG2 THR A   9      16.932  17.263  19.248  0.00  0.00    +0.034 C 
BRANCH  32  34
ATOM     34  OG1 THR A   9      15.895  19.462  19.233  0.00  0.00    -0.382 OA
ATOM     35  HG1 THR A   9      15.078  19.981  19.441  0.00  0.00    +0.210 HD
ENDBRANCH  32  34
ENDBRANCH  21  32
ENDBRANCH  18  21
ENDBRANCH  16  17
BRANCH  16  36
ATOM     36  CB  ASP A   8      10.324  18.114  19.567  0.00  0.00    +0.143 C 
BRANCH  36  37
ATOM     37  CG  ASP A   8       9.036  18.572  20.182  0.00  0.00    +0.367 C 
ATOM     38  OD2 ASP A   8       9.082  19.527  20.992  0.00  0.00    -0.246 OA
ATOM     39  OD1 ASP A   8       7.989  17.952  19.862  0.00  0.00    -0.246 OA
ENDBRANCH  36  37
ENDBRANCH  16  36
ENDBRANCH  14  16
ENDBRANCH  11  12
BRANCH  11  40
ATOM     40  CB  ASP A   7       7.726  21.602  17.448  0.00  0.00    +0.143 C 
BRANCH  40  41
ATOM     41  CG  ASP A   7       6.654  21.956  16.461  0.00  0.00    +0.367 C 
ATOM     42  OD2 ASP A   7       5.773  21.099  16.291  0.00  0.00    -0.246 OA
ATOM     43  OD1 ASP A   7       6.677  23.061  15.863  0.00  0.00    -0.246 OA
ENDBRANCH  40  41
ENDBRANCH  11  40
ENDBRANCH   8  11
ENDBRANCH   5   7
ENDBRANCH   2   5
BRANCH   1  44
ATOM     44  CA  GLY A   5       9.875  22.746  10.630  0.00  0.00    +0.176 C 
BRANCH  44  47
ATOM     45  C   THR A   4      11.530  24.373  11.316  0.00  0.00    +0.243 C 
ATOM     46  O   THR A   4      10.699  24.981  11.988  0.00  0.00    -0.273 OA
ATOM     47  N   GLY A   5      11.222  23.280  10.626  0.00  0.00    -0.295 N 
ATOM     48  H   GLY A   5      11.961  22.799  10.073  0.00  0.00    +0.150 HD
BRANCH  45  49
ATOM     49  CA  THR A   4      13.009  24.838  11.263  0.00  0.00    +0.176 C 
BRANCH  49  52
ATOM     50  C   ASP A   3      14.252  22.749  11.583  0.00  0.00    +0.241 C 
ATOM     51  O   ASP A   3      13.675  22.546  12.639  0.00  0.00    -0.273 OA
ATOM     52  N   THR A   4      13.965  23.806  10.822  0.00  0.00    -0.295 N 
ATOM     53  H   THR A   4      14.427  23.905   9.895  0.00  0.00    +0.150 HD
BRANCH  50  54
ATOM     54  CA  ASP A   3      15.250  21.705  11.030  0.00  0.00    +0.160 C 
BRANCH  54  56
ATOM     55  C   LEU A   2      17.656  21.961  10.772  0.00  0.00    +0.241 C 
ATOM     56  N   ASP A   3      16.599  21.787  11.552  0.00  0.00    -0.297 N 
ATOM     57  H   ASP A   3      16.743  21.706  12.579  0.00  0.00    +0.150 HD
ATOM     58  O   LEU A   2      17.575  22.171   9.570  0.00  0.00    -0.273 OA
BRANCH  55  59
ATOM     59  CA  LEU A   2      19.016  21.915  11.453  0.00  0.00    +0.149 C 
BRANCH  59  62
ATOM     60  C   LEU A   1      19.226  19.535  11.199  0.00  0.00    +0.238 C 
ATOM     61  O   LEU A   1      18.422  19.374  12.113  0.00  0.00    -0.274 OA
ATOM     62  N   LEU A   2      19.628  20.743  10.832  0.00  0.00    -0.297 N 
ATOM     63  H   LEU A   2      20.369  20.855  10.111  0.00  0.00    +0.150 HD
BRANCH  60  64
ATOM     64  CA  LEU A   1      19.851  18.329  10.488  0.00  0.00    +0.145 C 
BRANCH  64  65
ATOM     65  N   LEU A   1      20.491  17.421  11.428  0.00  0.00    -0.238 NA
ATOM     66  H   LEU A   1      19.901  16.685  11.866  0.00  0.00    +0.142 HD
ENDBRANCH  64  65
BRANCH  64  67
ATOM     67  CB  LEU A   1      18.751  17.547   9.758  0.00  0.00    +0.026 C 
BRANCH  67  68
ATOM     68  CG  LEU A   1      17.970  18.129   8.581  0.00  0.00    +0.002 C 
ATOM     69  CD2 LEU A   1      16.776  17.234   8.320  0.00  0.00    +0.000 C 
ATOM     70  CD1 LEU A   1      18.838  18.170   7.339  0.00  0.00    +0.000 C 
ENDBRANCH  67  68
ENDBRANCH  64  67
ENDBRANCH  60  64
ENDBRANCH  59  62
BRANCH  59  71
ATOM     71  CB  LEU A   2      19.814  23.178  11.163  0.00  0.00    +0.029 C 
BRANCH  71  72
ATOM     72  CG  LEU A   2      21.226  23.248  11.744  0.00  0.00    +0.002 C 
ATOM     73  CD2 LEU A   2      21.204  22.945  13.240  0.00  0.00    +0.000 C 
ATOM     74  CD1 LEU A   2      21.756  24.641  11.486  0.00  0.00    +0.000 C 
ENDBRANCH  71  72
ENDBRANCH  59  71
ENDBRANCH  55  59
ENDBRANCH  54  56
BRANCH  54  75
ATOM     75  CB  ASP A   3      14.763  20.278  11.348  0.00  0.00    +0.143 C 
BRANCH  75  76
ATOM     76  CG  ASP A   3      13.592  19.853  10.516  0.00  0.00    +0.367 C 
ATOM     77  OD2 ASP A   3      13.269  18.659  10.551  0.00  0.00    -0.246 OA
ATOM     78  OD1 ASP A   3      13.008  20.691   9.818  0.00  0.00    -0.246 OA
ENDBRANCH  75  76
ENDBRANCH  54  75
ENDBRANCH  50  54
ENDBRANCH  49  52
BRANCH  49  79
ATOM     79  CB  THR A   4      13.137  26.134  10.416  0.00  0.00    +0.137 C 
ATOM     80  CG2 THR A   4      14.492  26.792  10.648  0.00  0.00    +0.034 C 
BRANCH  79  81
ATOM     81  OG1 THR A   4      13.002  25.844   9.017  0.00  0.00    -0.382 OA
ATOM     82  HG1 THR A   4      12.114  25.439   8.849  0.00  0.00    +0.210 HD
ENDBRANCH  79  81
ENDBRANCH  49  79
ENDBRANCH  45  49
ENDBRANCH  44  47
ENDBRANCH   1  44
TORSDOF 35
REMARK  Name = ../refined-set-2016/1hpv/1hpv_pocket.pdb
REMARK  214 active torsions:
REMARK  status: ('A' for Active; 'I' for Inactive)
REMARK    1  A    between atoms: _1  and  _3
REMARK    2  A    between atoms: _3  and  _4
REMARK    3  A    between atoms: _3  and  _6
REMARK    4  A    between atoms: _6  and  _7
REMARK    5  A    between atoms: _7  and  _8
REMARK    6  A    between atoms: _8  and  _9
REMARK    7  A    between atoms: _18  and  _20
REMARK    8  A    between atoms: _20  and  _21
REMARK    9  A    between atoms: _20  and  _23
REMARK   10  A    between atoms: _23  and  _24
REMARK   11  A    between atoms: _27  and  _29
REMARK   12  A    between atoms: _29  and  _30
REMARK   13  A    between atoms: _29  and  _32
REMARK   14  A    between atoms: _32  and  _33
REMARK   15  A    between atoms: _36  and  _38
REMARK   16  A    between atoms: _38  and  _39
REMARK   17  A    between atoms: _38  and  _41
REMARK   18  A    between atoms: _41  and  _42
REMARK   19  A    between atoms: _45  and  _47
REMARK   20  A    between atoms: _47  and  _48
REMARK   21  A    between atoms: _47  and  _50
REMARK   22  A    between atoms: _50  and  _51
REMARK   23  A    between atoms: _54  and  _56
REMARK   24  A    between atoms: _56  and  _57
REMARK   25  A    between atoms: _59  and  _61
REMARK   26  A    between atoms: _61  and  _62
REMARK   27  A    between atoms: _65  and  _67
REMARK   28  A    between atoms: _67  and  _68
REMARK   29  A    between atoms: _67  and  _70
REMARK   30  A    between atoms: _70  and  _71
REMARK   31  A    between atoms: _74  and  _76
REMARK   32  A    between atoms: _76  and  _77
REMARK   33  A    between atoms: _76  and  _79
REMARK   34  A    between atoms: _79  and  _80
REMARK   35  A    between atoms: _83  and  _85
REMARK   36  A    between atoms: _85  and  _86
REMARK   37  A    between atoms: _85  and  _88
REMARK   38  A    between atoms: _88  and  _89
REMARK   39  A    between atoms: _92  and  _94
REMARK   40  A    between atoms: _94  and  _95
REMARK   41  A    between atoms: _94  and  _97
REMARK   42  A    between atoms: _100  and  _102
REMARK   43  A    between atoms: _102  and  _103
REMARK   44  A    between atoms: _102  and  _105
REMARK   45  A    between atoms: _105  and  _106
REMARK   46  A    between atoms: _106  and  _107
REMARK   47  A    between atoms: _107  and  _108
REMARK   48  A    between atoms: _108  and  _109
REMARK   49  A    between atoms: _113  and  _115
REMARK   50  A    between atoms: _115  and  _116
REMARK   51  A    between atoms: _115  and  _118
REMARK   52  A    between atoms: _118  and  _119
REMARK   53  A    between atoms: _119  and  _120
REMARK   54  A    between atoms: _122  and  _124
REMARK   55  A    between atoms: _124  and  _125
REMARK   56  A    between atoms: _124  and  _127
REMARK   57  A    between atoms: _127  and  _128
REMARK   58  A    between atoms: _131  and  _133
REMARK   59  A    between atoms: _133  and  _134
REMARK   60  A    between atoms: _136  and  _138
REMARK   61  A    between atoms: _138  and  _139
REMARK   62  A    between atoms: _141  and  _143
REMARK   63  A    between atoms: _143  and  _144
REMARK   64  A    between atoms: _143  and  _146
REMARK   65  A    between atoms: _146  and  _147
REMARK   66  A    between atoms: _150  and  _152
REMARK   67  A    between atoms: _152  and  _153
REMARK   68  A    between atoms: _155  and  _157
REMARK   69  A    between atoms: _157  and  _158
REMARK   70  A    between atoms: _160  and  _162
REMARK   71  A    between atoms: _162  and  _163
REMARK   72  A    between atoms: _162  and  _165
REMARK   73  A    between atoms: _165  and  _166
REMARK   74  A    between atoms: _169  and  _171
REMARK   75  A    between atoms: _171  and  _172
REMARK   76  A    between atoms: _171  and  _174
REMARK   77  A    between atoms: _174  and  _175
REMARK   78  A    between atoms: _178  and  _180
REMARK   79  A    between atoms: _180  and  _181
REMARK   80  A    between atoms: _180  and  _183
REMARK   81  A    between atoms: _183  and  _184
REMARK   82  A    between atoms: _188  and  _189
REMARK   83  A    between atoms: _194  and  _196
REMARK   84  A    between atoms: _196  and  _197
REMARK   85  A    between atoms: _196  and  _199
REMARK   86  A    between atoms: _202  and  _204
REMARK   87  A    between atoms: _204  and  _205
REMARK   88  A    between atoms: _204  and  _207
REMARK   89  A    between atoms: _207  and  _208
REMARK   90  A    between atoms: _213  and  _215
REMARK   91  A    between atoms: _215  and  _216
REMARK   92  A    between atoms: _215  and  _218
REMARK   93  A    between atoms: _218  and  _219
REMARK   94  A    between atoms: _222  and  _224
REMARK   95  A    between atoms: _224  and  _225
REMARK   96  A    between atoms: _224  and  _227
REMARK   97  A    between atoms: _227  and  _228
REMARK   98  A    between atoms: _231  and  _233
REMARK   99  A    between atoms: _233  and  _234
REMARK  100  A    between atoms: _236  and  _238
REMARK  101  A    between atoms: _238  and  _239
REMARK  102  A    between atoms: _238  and  _241
REMARK  103  A    between atoms: _241  and  _242
REMARK  104  A    between atoms: _242  and  _243
REMARK  105  A    between atoms: _243  and  _244
REMARK  106  A    between atoms: _253  and  _255
REMARK  107  A    between atoms: _255  and  _256
REMARK  108  A    between atoms: _255  and  _258
REMARK  109  A    between atoms: _258  and  _259
REMARK  110  A    between atoms: _264  and  _266
REMARK  111  A    between atoms: _266  and  _267
REMARK  112  A    between atoms: _266  and  _269
REMARK  113  A    between atoms: _269  and  _270
REMARK  114  A    between atoms: _270  and  _271
REMARK  115  A    between atoms: _271  and  _272
REMARK  116  A    between atoms: _281  and  _283
REMARK  117  A    between atoms: _283  and  _284
REMARK  118  A    between atoms: _283  and  _286
REMARK  119  A    between atoms: _286  and  _287
REMARK  120  A    between atoms: _290  and  _292
REMARK  121  A    between atoms: _292  and  _293
REMARK  122  A    between atoms: _292  and  _295
REMARK  123  A    between atoms: _295  and  _296
REMARK  124  A    between atoms: _299  and  _301
REMARK  125  A    between atoms: _301  and  _302
REMARK  126  A    between atoms: _301  and  _304
REMARK  127  A    between atoms: _304  and  _305
REMARK  128  A    between atoms: _308  and  _310
REMARK  129  A    between atoms: _310  and  _311
REMARK  130  A    between atoms: _310  and  _313
REMARK  131  A    between atoms: _313  and  _314
REMARK  132  A    between atoms: _317  and  _319
REMARK  133  A    between atoms: _319  and  _320
REMARK  134  A    between atoms: _322  and  _324
REMARK  135  A    between atoms: _324  and  _325
REMARK  136  A    between atoms: _328  and  _330
REMARK  137  A    between atoms: _330  and  _331
REMARK  138  A    between atoms: _330  and  _333
REMARK  139  A    between atoms: _333  and  _334
REMARK  140  A    between atoms: _337  and  _339
REMARK  141  A    between atoms: _339  and  _340
REMARK  142  A    between atoms: _339  and  _342
REMARK  143  A    between atoms: _342  and  _343
REMARK  144  A    between atoms: _346  and  _348
REMARK  145  A    between atoms: _348  and  _349
REMARK  146  A    between atoms: _348  and  _351
REMARK  147  A    between atoms: _351  and  _352
REMARK  148  A    between atoms: _355  and  _357
REMARK  149  A    between atoms: _357  and  _358
REMARK  150  A    between atoms: _357  and  _360
REMARK  151  A    between atoms: _363  and  _365
REMARK  152  A    between atoms: _365  and  _366
REMARK  153  A    between atoms: _365  and  _368
REMARK  154  A    between atoms: _368  and  _369
REMARK  155  A    between atoms: _369  and  _370
REMARK  156  A    between atoms: _370  and  _371
REMARK  157  A    between atoms: _371  and  _372
REMARK  158  A    between atoms: _376  and  _378
REMARK  159  A    between atoms: _378  and  _379
REMARK  160  A    between atoms: _378  and  _381
REMARK  161  A    between atoms: _381  and  _382
REMARK  162  A    between atoms: _385  and  _387
REMARK  163  A    between atoms: _387  and  _388
REMARK  164  A    between atoms: _390  and  _392
REMARK  165  A    between atoms: _392  and  _393
REMARK  166  A    between atoms: _395  and  _397
REMARK  167  A    between atoms: _397  and  _398
REMARK  168  A    between atoms: _397  and  _400
REMARK  169  A    between atoms: _400  and  _401
REMARK  170  A    between atoms: _404  and  _406
REMARK  171  A    between atoms: _406  and  _407
REMARK  172  A    between atoms: _409  and  _411
REMARK  173  A    between atoms: _411  and  _412
REMARK  174  A    between atoms: _414  and  _416
REMARK  175  A    between atoms: _416  and  _417
REMARK  176  A    between atoms: _416  and  _419
REMARK  177  A    between atoms: _419  and  _420
REMARK  178  A    between atoms: _423  and  _425
REMARK  179  A    between atoms: _425  and  _426
REMARK  180  A    between atoms: _425  and  _428
REMARK  181  A    between atoms: _428  and  _429
REMARK  182  A    between atoms: _433  and  _434
REMARK  183  A    between atoms: _439  and  _441
REMARK  184  A    between atoms: _441  and  _442
REMARK  185  A    between atoms: _441  and  _444
REMARK  186  A    between atoms: _444  and  _445
REMARK  187  A    between atoms: _449  and  _450
REMARK  188  A    between atoms: _455  and  _457
REMARK  189  A    between atoms: _457  and  _458
REMARK  190  A    between atoms: _457  and  _460
REMARK  191  A    between atoms: _463  and  _465
REMARK  192  A    between atoms: _465  and  _466
REMARK  193  A    between atoms: _465  and  _468
REMARK  194  A    between atoms: _468  and  _469
REMARK  195  A    between atoms: _474  and  _476
REMARK  196  A    between atoms: _476  and  _477
REMARK  197  A    between atoms: _476  and  _479
REMARK  198  A    between atoms: _479  and  _480
REMARK  199  A    between atoms: _483  and  _485
REMARK  200  A    between atoms: _485  and  _486
REMARK  201  A    between atoms: _485  and  _488
REMARK  202  A    between atoms: _488  and  _489
REMARK  203  A    between atoms: _492  and  _494
REMARK  204  A    between atoms: _494  and  _495
REMARK  205  A    between atoms: _497  and  _499
REMARK  206  A    between atoms: _499  and  _500
REMARK  207  A    between atoms: _499  and  _502
REMARK  208  A    between atoms: _502  and  _503
REMARK  209  A    between atoms: _503  and  _504
REMARK  210  A    between atoms: _504  and  _505
REMARK  211  A    between atoms: _514  and  _516
REMARK  212  A    between atoms: _516  and  _517
REMARK  213  A    between atoms: _516  and  _519
REMARK  214  A    between atoms: _519  and  _520
REMARK                            x       y       z     vdW  Elec       q    Type
REMARK                         _______ _______ _______ _____ _____    ______ ____
ROOT
ATOM      1  CG  LYS A   1       5.908  12.594  23.658  0.00  0.00    -0.000 C 
ENDROOT
BRANCH   1   2
ATOM      2  CB  LYS A   1       6.640  11.410  24.248  0.00  0.00    +0.025 C 
BRANCH   2   3
ATOM      3  CA  LYS A   1       5.833  10.106  24.318  0.00  0.00    +0.133 C 
BRANCH   3   4
ATOM      4  N   LYS A   1       6.623   9.115  25.040  0.00  0.00    -0.239 NA
ATOM      5  H   LYS A   1       7.625   9.008  24.783  0.00  0.00    +0.142 HD
ENDBRANCH   3   4
BRANCH   3   6
ATOM      6  C   LYS A   1       5.545   9.594  22.896  0.00  0.00    +0.224 C 
ATOM      7  O   LYS A   1       6.033   8.539  22.497  0.00  0.00    -0.287 OA
ENDBRANCH   3   6
ENDBRANCH   2   3
ENDBRANCH   1   2
BRANCH   1   8
ATOM      8  CD  LYS A   1       6.866  13.725  23.336  0.00  0.00    -0.024 C 
BRANCH   8   9
ATOM      9  CE  LYS A   1       6.147  15.037  23.023  0.00  0.00    -0.086 C 
BRANCH   9  10
ATOM     10  NZ  LYS A   1       7.147  16.099  22.684  0.00  0.00    +0.380 N 
ATOM     11  HZ1 LYS A   1       7.786  16.242  23.492  0.00  0.00    -0.089 HD
ATOM     12  HZ2 LYS A   1       6.649  16.987  22.473  0.00  0.00    -0.089 HD
ATOM     13  HZ3 LYS A   1       7.698  15.802  21.853  0.00  0.00    -0.089 HD
ENDBRANCH   9  10
ENDBRANCH   8   9
ENDBRANCH   1   8
TORSDOF 7
REMARK  Name = ../refined-set-2016/1hpv/1hpv_pocket.pdb
REMARK  214 active torsions:
REMARK  status: ('A' for Active; 'I' for Inactive)
REMARK    1  A    between atoms: _1  and  _3
REMARK    2  A    between atoms: _3  and  _4
REMARK    3  A    between atoms: _3  and  _6
REMARK    4  A    between atoms: _6  and  _7
REMARK    5  A    between atoms: _7  and  _8
REMARK    6  A    between atoms: _8  and  _9
REMARK    7  A    between atoms: _18  and  _20
REMARK    8  A    between atoms: _20  and  _21
REMARK    9  A    between atoms: _20  and  _23
REMARK   10  A    between atoms: _23  and  _24
REMARK   11  A    between atoms: _27  and  _29
REMARK   12  A    between atoms: _29  and  _30
REMARK   13  A    between atoms: _29  and  _32
REMARK   14  A    between atoms: _32  and  _33
REMARK   15  A    between atoms: _36  and  _38
REMARK   16  A    between atoms: _38  and  _39
REMARK   17  A    between atoms: _38  and  _41
REMARK   18  A    between atoms: _41  and  _42
REMARK   19  A    between atoms: _45  and  _47
REMARK   20  A    between atoms: _47  and  _48
REMARK   21  A    between atoms: _47  and  _50
REMARK   22  A    between atoms: _50  and  _51
REMARK   23  A    between atoms: _54  and  _56
REMARK   24  A    between atoms: _56  and  _57
REMARK   25  A    between atoms: _59  and  _61
REMARK   26  A    between atoms: _61  and  _62
REMARK   27  A    between atoms: _65  and  _67
REMARK   28  A    between atoms: _67  and  _68
REMARK   29  A    between atoms: _67  and  _70
REMARK   30  A    between atoms: _70  and  _71
REMARK   31  A    between atoms: _74  and  _76
REMARK   32  A    between atoms: _76  and  _77
REMARK   33  A    between atoms: _76  and  _79
REMARK   34  A    between atoms: _79  and  _80
REMARK   35  A    between atoms: _83  and  _85
REMARK   36  A    between atoms: _85  and  _86
REMARK   37  A    between atoms: _85  and  _88
REMARK   38  A    between atoms: _88  and  _89
REMARK   39  A    between atoms: _92  and  _94
REMARK   40  A    between atoms: _94  and  _95
REMARK   41  A    between atoms: _94  and  _97
REMARK   42  A    between atoms: _100  and  _102
REMARK   43  A    between atoms: _102  and  _103
REMARK   44  A    between atoms: _102  and  _105
REMARK   45  A    between atoms: _105  and  _106
REMARK   46  A    between atoms: _106  and  _107
REMARK   47  A    between atoms: _107  and  _108
REMARK   48  A    between atoms: _108  and  _109
REMARK   49  A    between atoms: _113  and  _115
REMARK   50  A    between atoms: _115  and  _116
REMARK   51  A    between atoms: _115  and  _118
REMARK   52  A    between atoms: _118  and  _119
REMARK   53  A    between atoms: _119  and  _120
REMARK   54  A    between atoms: _122  and  _124
REMARK   55  A    between atoms: _124  and  _125
REMARK   56  A    between atoms: _124  and  _127
REMARK   57  A    between atoms: _127  and  _128
REMARK   58  A    between atoms: _131  and  _133
REMARK   59  A    between atoms: _133  and  _134
REMARK   60  A    between atoms: _136  and  _138
REMARK   61  A    between atoms: _138  and  _139
REMARK   62  A    between atoms: _141  and  _143
REMARK   63  A    between atoms: _143  and  _144
REMARK   64  A    between atoms: _143  and  _146
REMARK   65  A    between atoms: _146  and  _147
REMARK   66  A    between atoms: _150  and  _152
REMARK   67  A    between atoms: _152  and  _153
REMARK   68  A    between atoms: _155  and  _157
REMARK   69  A    between atoms: _157  and  _158
REMARK   70  A    between atoms: _160  and  _162
REMARK   71  A    between atoms: _162  and  _163
REMARK   72  A    between atoms: _162  and  _165
REMARK   73  A    between atoms: _165  and  _166
REMARK   74  A    between atoms: _169  and  _171
REMARK   75  A    between atoms: _171  and  _172
REMARK   76  A    between atoms: _171  and  _174
REMARK   77  A    between atoms: _174  and  _175
REMARK   78  A    between atoms: _178  and  _180
REMARK   79  A    between atoms: _180  and  _181
REMARK   80  A    between atoms: _180  and  _183
REMARK   81  A    between atoms: _183  and  _184
REMARK   82  A    between atoms: _188  and  _189
REMARK   83  A    between atoms: _194  and  _196
REMARK   84  A    between atoms: _196  and  _197
REMARK   85  A    between atoms: _196  and  _199
REMARK   86  A    between atoms: _202  and  _204
REMARK   87  A    between atoms: _204  and  _205
REMARK   88  A    between atoms: _204  and  _207
REMARK   89  A    between atoms: _207  and  _208
REMARK   90  A    between atoms: _213  and  _215
REMARK   91  A    between atoms: _215  and  _216
REMARK   92  A    between atoms: _215  and  _218
REMARK   93  A    between atoms: _218  and  _219
REMARK   94  A    between atoms: _222  and  _224
REMARK   95  A    between atoms: _224  and  _225
REMARK   96  A    between atoms: _224  and  _227
REMARK   97  A    between atoms: _227  and  _228
REMARK   98  A    between atoms: _231  and  _233
REMARK   99  A    between atoms: _233  and  _234
REMARK  100  A    between atoms: _236  and  _238
REMARK  101  A    between atoms: _238  and  _239
REMARK  102  A    between atoms: _238  and  _241
REMARK  103  A    between atoms: _241  and  _242
REMARK  104  A    between atoms: _242  and  _243
REMARK  105  A    between atoms: _243  and  _244
REMARK  106  A    between atoms: _253  and  _255
REMARK  107  A    between atoms: _255  and  _256
REMARK  108  A    between atoms: _255  and  _258
REMARK  109  A    between atoms: _258  and  _259
REMARK  110  A    between atoms: _264  and  _266
REMARK  111  A    between atoms: _266  and  _267
REMARK  112  A    between atoms: _266  and  _269
REMARK  113  A    between atoms: _269  and  _270
REMARK  114  A    between atoms: _270  and  _271
REMARK  115  A    between atoms: _271  and  _272
REMARK  116  A    between atoms: _281  and  _283
REMARK  117  A    between atoms: _283  and  _284
REMARK  118  A    between atoms: _283  and  _286
REMARK  119  A    between atoms: _286  and  _287
REMARK  120  A    between atoms: _290  and  _292
REMARK  121  A    between atoms: _292  and  _293
REMARK  122  A    between atoms: _292  and  _295
REMARK  123  A    between atoms: _295  and  _296
REMARK  124  A    between atoms: _299  and  _301
REMARK  125  A    between atoms: _301  and  _302
REMARK  126  A    between atoms: _301  and  _304
REMARK  127  A    between atoms: _304  and  _305
REMARK  128  A    between atoms: _308  and  _310
REMARK  129  A    between atoms: _310  and  _311
REMARK  130  A    between atoms: _310  and  _313
REMARK  131  A    between atoms: _313  and  _314
REMARK  132  A    between atoms: _317  and  _319
REMARK  133  A    between atoms: _319  and  _320
REMARK  134  A    between atoms: _322  and  _324
REMARK  135  A    between atoms: _324  and  _325
REMARK  136  A    between atoms: _328  and  _330
REMARK  137  A    between atoms: _330  and  _331
REMARK  138  A    between atoms: _330  and  _333
REMARK  139  A    between atoms: _333  and  _334
REMARK  140  A    between atoms: _337  and  _339
REMARK  141  A    between atoms: _339  and  _340
REMARK  142  A    between atoms: _339  and  _342
REMARK  143  A    between atoms: _342  and  _343
REMARK  144  A    between atoms: _346  and  _348
REMARK  145  A    between atoms: _348  and  _349
REMARK  146  A    between atoms: _348  and  _351
REMARK  147  A    between atoms: _351  and  _352
REMARK  148  A    between atoms: _355  and  _357
REMARK  149  A    between atoms: _357  and  _358
REMARK  150  A    between atoms: _357  and  _360
REMARK  151  A    between atoms: _363  and  _365
REMARK  152  A    between atoms: _365  and  _366
REMARK  153  A    between atoms: _365  and  _368
REMARK  154  A    between atoms: _368  and  _369
REMARK  155  A    between atoms: _369  and  _370
REMARK  156  A    between atoms: _370  and  _371
REMARK  157  A    between atoms: _371  and  _372
REMARK  158  A    between atoms: _376  and  _378
REMARK  159  A    between atoms: _378  and  _379
REMARK  160  A    between atoms: _378  and  _381
REMARK  161  A    between atoms: _381  and  _382
REMARK  162  A    between atoms: _385  and  _387
REMARK  163  A    between atoms: _387  and  _388
REMARK  164  A    between atoms: _390  and  _392
REMARK  165  A    between atoms: _392  and  _393
REMARK  166  A    between atoms: _395  and  _397
REMARK  167  A    between atoms: _397  and  _398
REMARK  168  A    between atoms: _397  and  _400
REMARK  169  A    between atoms: _400  and  _401
REMARK  170  A    between atoms: _404  and  _406
REMARK  171  A    between atoms: _406  and  _407
REMARK  172  A    between atoms: _409  and  _411
REMARK  173  A    between atoms: _411  and  _412
REMARK  174  A    between atoms: _414  and  _416
REMARK  175  A    between atoms: _416  and  _417
REMARK  176  A    between atoms: _416  and  _419
REMARK  177  A    between atoms: _419  and  _420
REMARK  178  A    between atoms: _423  and  _425
REMARK  179  A    between atoms: _425  and  _426
REMARK  180  A    between atoms: _425  and  _428
REMARK  181  A    between atoms: _428  and  _429
REMARK  182  A    between atoms: _433  and  _434
REMARK  183  A    between atoms: _439  and  _441
REMARK  184  A    between atoms: _441  and  _442
REMARK  185  A    between atoms: _441  and  _444
REMARK  186  A    between atoms: _444  and  _445
REMARK  187  A    between atoms: _449  and  _450
REMARK  188  A    between atoms: _455  and  _457
REMARK  189  A    between atoms: _457  and  _458
REMARK  190  A    between atoms: _457  and  _460
REMARK  191  A    between atoms: _463  and  _465
REMARK  192  A    between atoms: _465  and  _466
REMARK  193  A    between atoms: _465  and  _468
REMARK  194  A    between atoms: _468  and  _469
REMARK  195  A    between atoms: _474  and  _476
REMARK  196  A    between atoms: _476  and  _477
REMARK  197  A    between atoms: _476  and  _479
REMARK  198  A    between atoms: _479  and  _480
REMARK  199  A    between atoms: _483  and  _485
REMARK  200  A    between atoms: _485  and  _486
REMARK  201  A    between atoms: _485  and  _488
REMARK  202  A    between atoms: _488  and  _489
REMARK  203  A    between atoms: _492  and  _494
REMARK  204  A    between atoms: _494  and  _495
REMARK  205  A    between atoms: _497  and  _499
REMARK  206  A    between atoms: _499  and  _500
REMARK  207  A    between atoms: _499  and  _502
REMARK  208  A    between atoms: _502  and  _503
REMARK  209  A    between atoms: _503  and  _504
REMARK  210  A    between atoms: _504  and  _505
REMARK  211  A    between atoms: _514  and  _516
REMARK  212  A    between atoms: _516  and  _517
REMARK  213  A    between atoms: _516  and  _519
REMARK  214  A    between atoms: _519  and  _520
REMARK                            x       y       z     vdW  Elec       q    Type
REMARK                         _______ _______ _______ _____ _____    ______ ____
ROOT
ATOM      1  C   GLY A   3       4.356  13.381   9.744  0.00  0.00    +0.243 C 
ATOM      2  O   GLY A   3       3.319  12.727   9.706  0.00  0.00    -0.273 OA
ATOM      3  N   ILE A   4       5.081  13.616   8.666  0.00  0.00    -0.297 N 
ATOM      4  H   ILE A   4       5.934  14.206   8.742  0.00  0.00    +0.150 HD
ENDROOT
BRANCH   3   5
ATOM      5  CA  ILE A   4       4.708  13.064   7.374  0.00  0.00    +0.149 C 
BRANCH   5   6
ATOM      6  C   ILE A   4       4.856  11.549   7.460  0.00  0.00    +0.241 C 
ATOM      7  O   ILE A   4       5.780  11.039   8.101  0.00  0.00    -0.273 OA
ATOM      8  N   GLY A   5       3.894  10.840   6.900  0.00  0.00    -0.295 N 
ATOM      9  H   GLY A   5       3.086  11.316   6.451  0.00  0.00    +0.150 HD
BRANCH   8  10
ATOM     10  CA  GLY A   5       3.972   9.406   6.916  0.00  0.00    +0.176 C 
BRANCH  10  11
ATOM     11  C   GLY A   5       3.324   8.766   8.125  0.00  0.00    +0.243 C 
ATOM     12  N   GLY A   6       3.051   9.545   9.167  0.00  0.00    -0.296 N 
ATOM     13  H   GLY A   6       3.285  10.558   9.142  0.00  0.00    +0.150 HD
ATOM     14  O   GLY A   5       3.088   7.562   8.121  0.00  0.00    -0.273 OA
BRANCH  12  15
ATOM     15  CA  GLY A   6       2.422   8.963  10.341  0.00  0.00    +0.163 C 
BRANCH  15  16
ATOM     16  C   GLY A   6       2.983   9.375  11.690  0.00  0.00    +0.229 C 
ATOM     17  O   GLY A   6       3.547  10.455  11.835  0.00  0.00    -0.286 OA
ENDBRANCH  15  16
ENDBRANCH  12  15
ENDBRANCH  10  11
ENDBRANCH   8  10
ENDBRANCH   5   6
BRANCH   5  18
ATOM     18  CB  ILE A   4       5.578  13.675   6.226  0.00  0.00    +0.027 C 
ATOM     19  CG2 ILE A   4       5.904  12.646   5.152  0.00  0.00    +0.002 C 
BRANCH  18  20
ATOM     20  CG1 ILE A   4       4.849  14.865   5.600  0.00  0.00    +0.002 C 
ATOM     21  CD1 ILE A   4       5.545  15.467   4.396  0.00  0.00    +0.000 C 
ENDBRANCH  18  20
ENDBRANCH   5  18
ENDBRANCH   3   5
BRANCH   1  22
ATOM     22  CA  GLY A   3       4.864  13.960  11.039  0.00  0.00    +0.176 C 
BRANCH  22  25
ATOM     23  C   GLY A   2       4.238  13.635  13.366  0.00  0.00    +0.243 C 
ATOM     24  O   GLY A   2       4.786  14.682  13.741  0.00  0.00    -0.273 OA
ATOM     25  N   GLY A   3       4.249  13.206  12.109  0.00  0.00    -0.295 N 
ATOM     26  H   GLY A   3       3.799  12.295  11.886  0.00  0.00    +0.150 HD
BRANCH  23  27
ATOM     27  CA  GLY A   2       3.515  12.725  14.344  0.00  0.00    +0.176 C 
BRANCH  27  30
ATOM     28  C   ILE A   1       4.435  11.944  16.420  0.00  0.00    +0.238 C 
ATOM     29  O   ILE A   1       4.522  10.790  15.998  0.00  0.00    -0.274 OA
ATOM     30  N   GLY A   2       3.969  12.946  15.697  0.00  0.00    -0.296 N 
ATOM     31  H   GLY A   2       3.929  13.902  16.105  0.00  0.00    +0.150 HD
BRANCH  28  32
ATOM     32  CA  ILE A   1       4.899  12.323  17.814  0.00  0.00    +0.145 C 
BRANCH  32  33
ATOM     33  N   ILE A   1       4.953  11.190  18.726  0.00  0.00    -0.238 NA
ATOM     34  H   ILE A   1       5.500  10.346  18.461  0.00  0.00    +0.142 HD
ENDBRANCH  32  33
BRANCH  32  35
ATOM     35  CB  ILE A   1       6.269  13.051  17.677  0.00  0.00    +0.025 C 
ATOM     36  CG2 ILE A   1       6.632  13.725  18.976  0.00  0.00    +0.002 C 
BRANCH  35  37
ATOM     37  CG1 ILE A   1       7.370  12.087  17.248  0.00  0.00    +0.002 C 
ATOM     38  CD1 ILE A   1       8.654  12.777  16.846  0.00  0.00    +0.000 C 
ENDBRANCH  35  37
ENDBRANCH  32  35
ENDBRANCH  28  32
ENDBRANCH  27  30
ENDBRANCH  23  27
ENDBRANCH  22  25
ENDBRANCH   1  22
TORSDOF 16
REMARK  Name = ../refined-set-2016/1hpv/1hpv_pocket.pdb
REMARK  214 active torsions:
REMARK  status: ('A' for Active; 'I' for Inactive)
REMARK    1  A    between atoms: _1  and  _3
REMARK    2  A    between atoms: _3  and  _4
REMARK    3  A    between atoms: _3  and  _6
REMARK    4  A    between atoms: _6  and  _7
REMARK    5  A    between atoms: _7  and  _8
REMARK    6  A    between atoms: _8  and  _9
REMARK    7  A    between atoms: _18  and  _20
REMARK    8  A    between atoms: _20  and  _21
REMARK    9  A    between atoms: _20  and  _23
REMARK   10  A    between atoms: _23  and  _24
REMARK   11  A    between atoms: _27  and  _29
REMARK   12  A    between atoms: _29  and  _30
REMARK   13  A    between atoms: _29  and  _32
REMARK   14  A    between atoms: _32  and  _33
REMARK   15  A    between atoms: _36  and  _38
REMARK   16  A    between atoms: _38  and  _39
REMARK   17  A    between atoms: _38  and  _41
REMARK   18  A    between atoms: _41  and  _42
REMARK   19  A    between atoms: _45  and  _47
REMARK   20  A    between atoms: _47  and  _48
REMARK   21  A    between atoms: _47  and  _50
REMARK   22  A    between atoms: _50  and  _51
REMARK   23  A    between atoms: _54  and  _56
REMARK   24  A    between atoms: _56  and  _57
REMARK   25  A    between atoms: _59  and  _61
REMARK   26  A    between atoms: _61  and  _62
REMARK   27  A    between atoms: _65  and  _67
REMARK   28  A    between atoms: _67  and  _68
REMARK   29  A    between atoms: _67  and  _70
REMARK   30  A    between atoms: _70  and  _71
REMARK   31  A    between atoms: _74  and  _76
REMARK   32  A    between atoms: _76  and  _77
REMARK   33  A    between atoms: _76  and  _79
REMARK   34  A    between atoms: _79  and  _80
REMARK   35  A    between atoms: _83  and  _85
REMARK   36  A    between atoms: _85  and  _86
REMARK   37  A    between atoms: _85  and  _88
REMARK   38  A    between atoms: _88  and  _89
REMARK   39  A    between atoms: _92  and  _94
REMARK   40  A    between atoms: _94  and  _95
REMARK   41  A    between atoms: _94  and  _97
REMARK   42  A    between atoms: _100  and  _102
REMARK   43  A    between atoms: _102  and  _103
REMARK   44  A    between atoms: _102  and  _105
REMARK   45  A    between atoms: _105  and  _106
REMARK   46  A    between atoms: _106  and  _107
REMARK   47  A    between atoms: _107  and  _108
REMARK   48  A    between atoms: _108  and  _109
REMARK   49  A    between atoms: _113  and  _115
REMARK   50  A    between atoms: _115  and  _116
REMARK   51  A    between atoms: _115  and  _118
REMARK   52  A    between atoms: _118  and  _119
REMARK   53  A    between atoms: _119  and  _120
REMARK   54  A    between atoms: _122  and  _124
REMARK   55  A    between atoms: _124  and  _125
REMARK   56  A    between atoms: _124  and  _127
REMARK   57  A    between atoms: _127  and  _128
REMARK   58  A    between atoms: _131  and  _133
REMARK   59  A    between atoms: _133  and  _134
REMARK   60  A    between atoms: _136  and  _138
REMARK   61  A    between atoms: _138  and  _139
REMARK   62  A    between atoms: _141  and  _143
REMARK   63  A    between atoms: _143  and  _144
REMARK   64  A    between atoms: _143  and  _146
REMARK   65  A    between atoms: _146  and  _147
REMARK   66  A    between atoms: _150  and  _152
REMARK   67  A    between atoms: _152  and  _153
REMARK   68  A    between atoms: _155  and  _157
REMARK   69  A    between atoms: _157  and  _158
REMARK   70  A    between atoms: _160  and  _162
REMARK   71  A    between atoms: _162  and  _163
REMARK   72  A    between atoms: _162  and  _165
REMARK   73  A    between atoms: _165  and  _166
REMARK   74  A    between atoms: _169  and  _171
REMARK   75  A    between atoms: _171  and  _172
REMARK   76  A    between atoms: _171  and  _174
REMARK   77  A    between atoms: _174  and  _175
REMARK   78  A    between atoms: _178  and  _180
REMARK   79  A    between atoms: _180  and  _181
REMARK   80  A    between atoms: _180  and  _183
REMARK   81  A    between atoms: _183  and  _184
REMARK   82  A    between atoms: _188  and  _189
REMARK   83  A    between atoms: _194  and  _196
REMARK   84  A    between atoms: _196  and  _197
REMARK   85  A    between atoms: _196  and  _199
REMARK   86  A    between atoms: _202  and  _204
REMARK   87  A    between atoms: _204  and  _205
REMARK   88  A    between atoms: _204  and  _207
REMARK   89  A    between atoms: _207  and  _208
REMARK   90  A    between atoms: _213  and  _215
REMARK   91  A    between atoms: _215  and  _216
REMARK   92  A    between atoms: _215  and  _218
REMARK   93  A    between atoms: _218  and  _219
REMARK   94  A    between atoms: _222  and  _224
REMARK   95  A    between atoms: _224  and  _225
REMARK   96  A    between atoms: _224  and  _227
REMARK   97  A    between atoms: _227  and  _228
REMARK   98  A    between atoms: _231  and  _233
REMARK   99  A    between atoms: _233  and  _234
REMARK  100  A    between atoms: _236  and  _238
REMARK  101  A    between atoms: _238  and  _239
REMARK  102  A    between atoms: _238  and  _241
REMARK  103  A    between atoms: _241  and  _242
REMARK  104  A    between atoms: _242  and  _243
REMARK  105  A    between atoms: _243  and  _244
REMARK  106  A    between atoms: _253  and  _255
REMARK  107  A    between atoms: _255  and  _256
REMARK  108  A    between atoms: _255  and  _258
REMARK  109  A    between atoms: _258  and  _259
REMARK  110  A    between atoms: _264  and  _266
REMARK  111  A    between atoms: _266  and  _267
REMARK  112  A    between atoms: _266  and  _269
REMARK  113  A    between atoms: _269  and  _270
REMARK  114  A    between atoms: _270  and  _271
REMARK  115  A    between atoms: _271  and  _272
REMARK  116  A    between atoms: _281  and  _283
REMARK  117  A    between atoms: _283  and  _284
REMARK  118  A    between atoms: _283  and  _286
REMARK  119  A    between atoms: _286  and  _287
REMARK  120  A    between atoms: _290  and  _292
REMARK  121  A    between atoms: _292  and  _293
REMARK  122  A    between atoms: _292  and  _295
REMARK  123  A    between atoms: _295  and  _296
REMARK  124  A    between atoms: _299  and  _301
REMARK  125  A    between atoms: _301  and  _302
REMARK  126  A    between atoms: _301  and  _304
REMARK  127  A    between atoms: _304  and  _305
REMARK  128  A    between atoms: _308  and  _310
REMARK  129  A    between atoms: _310  and  _311
REMARK  130  A    between atoms: _310  and  _313
REMARK  131  A    between atoms: _313  and  _314
REMARK  132  A    between atoms: _317  and  _319
REMARK  133  A    between atoms: _319  and  _320
REMARK  134  A    between atoms: _322  and  _324
REMARK  135  A    between atoms: _324  and  _325
REMARK  136  A    between atoms: _328  and  _330
REMARK  137  A    between atoms: _330  and  _331
REMARK  138  A    between atoms: _330  and  _333
REMARK  139  A    between atoms: _333  and  _334
REMARK  140  A    between atoms: _337  and  _339
REMARK  141  A    between atoms: _339  and  _340
REMARK  142  A    between atoms: _339  and  _342
REMARK  143  A    between atoms: _342  and  _343
REMARK  144  A    between atoms: _346  and  _348
REMARK  145  A    between atoms: _348  and  _349
REMARK  146  A    between atoms: _348  and  _351
REMARK  147  A    between atoms: _351  and  _352
REMARK  148  A    between atoms: _355  and  _357
REMARK  149  A    between atoms: _357  and  _358
REMARK  150  A    between atoms: _357  and  _360
REMARK  151  A    between atoms: _363  and  _365
REMARK  152  A    between atoms: _365  and  _366
REMARK  153  A    between atoms: _365  and  _368
REMARK  154  A    between atoms: _368  and  _369
REMARK  155  A    between atoms: _369  and  _370
REMARK  156  A    between atoms: _370  and  _371
REMARK  157  A    between atoms: _371  and  _372
REMARK  158  A    between atoms: _376  and  _378
REMARK  159  A    between atoms: _378  and  _379
REMARK  160  A    between atoms: _378  and  _381
REMARK  161  A    between atoms: _381  and  _382
REMARK  162  A    between atoms: _385  and  _387
REMARK  163  A    between atoms: _387  and  _388
REMARK  164  A    between atoms: _390  and  _392
REMARK  165  A    between atoms: _392  and  _393
REMARK  166  A    between atoms: _395  and  _397
REMARK  167  A    between atoms: _397  and  _398
REMARK  168  A    between atoms: _397  and  _400
REMARK  169  A    between atoms: _400  and  _401
REMARK  170  A    between atoms: _404  and  _406
REMARK  171  A    between atoms: _406  and  _407
REMARK  172  A    between atoms: _409  and  _411
REMARK  173  A    between atoms: _411  and  _412
REMARK  174  A    between atoms: _414  and  _416
REMARK  175  A    between atoms: _416  and  _417
REMARK  176  A    between atoms: _416  and  _419
REMARK  177  A    between atoms: _419  and  _420
REMARK  178  A    between atoms: _423  and  _425
REMARK  179  A    between atoms: _425  and  _426
REMARK  180  A    between atoms: _425  and  _428
REMARK  181  A    between atoms: _428  and  _429
REMARK  182  A    between atoms: _433  and  _434
REMARK  183  A    between atoms: _439  and  _441
REMARK  184  A    between atoms: _441  and  _442
REMARK  185  A    between atoms: _441  and  _444
REMARK  186  A    between atoms: _444  and  _445
REMARK  187  A    between atoms: _449  and  _450
REMARK  188  A    between atoms: _455  and  _457
REMARK  189  A    between atoms: _457  and  _458
REMARK  190  A    between atoms: _457  and  _460
REMARK  191  A    between atoms: _463  and  _465
REMARK  192  A    between atoms: _465  and  _466
REMARK  193  A    between atoms: _465  and  _468
REMARK  194  A    between atoms: _468  and  _469
REMARK  195  A    between atoms: _474  and  _476
REMARK  196  A    between atoms: _476  and  _477
REMARK  197  A    between atoms: _476  and  _479
REMARK  198  A    between atoms: _479  and  _480
REMARK  199  A    between atoms: _483  and  _485
REMARK  200  A    between atoms: _485  and  _486
REMARK  201  A    between atoms: _485  and  _488
REMARK  202  A    between atoms: _488  and  _489
REMARK  203  A    between atoms: _492  and  _494
REMARK  204  A    between atoms: _494  and  _495
REMARK  205  A    between atoms: _497  and  _499
REMARK  206  A    between atoms: _499  and  _500
REMARK  207  A    between atoms: _499  and  _502
REMARK  208  A    between atoms: _502  and  _503
REMARK  209  A    between atoms: _503  and  _504
REMARK  210  A    between atoms: _504  and  _505
REMARK  211  A    between atoms: _514  and  _516
REMARK  212  A    between atoms: _516  and  _517
REMARK  213  A    between atoms: _516  and  _519
REMARK  214  A    between atoms: _519  and  _520
REMARK                            x       y       z     vdW  Elec       q    Type
REMARK                         _______ _______ _______ _____ _____    ______ ____
ROOT
ATOM      1  CA  ILE A   1       6.166   7.251  16.054  0.00  0.00    +0.133 C 
ENDROOT
BRANCH   1   2
ATOM      2  N   ILE A   1       5.160   8.138  15.493  0.00  0.00    -0.239 NA
ATOM      3  H   ILE A   1       5.046   9.096  15.880  0.00  0.00    +0.142 HD
ENDBRANCH   1   2
BRANCH   1   4
ATOM      4  C   ILE A   1       6.193   7.358  17.580  0.00  0.00    +0.224 C 
ATOM      5  O   ILE A   1       5.847   8.402  18.149  0.00  0.00    -0.287 OA
ENDBRANCH   1   4
BRANCH   1   6
ATOM      6  CB  ILE A   1       7.619   7.442  15.457  0.00  0.00    +0.023 C 
ATOM      7  CG2 ILE A   1       7.628   7.197  13.974  0.00  0.00    +0.002 C 
BRANCH   6   8
ATOM      8  CG1 ILE A   1       8.210   8.810  15.798  0.00  0.00    +0.002 C 
ATOM      9  CD1 ILE A   1       9.681   8.900  15.455  0.00  0.00    +0.000 C 
ENDBRANCH   6   8
ENDBRANCH   1   6
TORSDOF 4
REMARK  Name = ../refined-set-2016/1hpv/1hpv_pocket.pdb
REMARK  214 active torsions:
REMARK  status: ('A' for Active; 'I' for Inactive)
REMARK    1  A    between atoms: _1  and  _3
REMARK    2  A    between atoms: _3  and  _4
REMARK    3  A    between atoms: _3  and  _6
REMARK    4  A    between atoms: _6  and  _7
REMARK    5  A    between atoms: _7  and  _8
REMARK    6  A    between atoms: _8  and  _9
REMARK    7  A    between atoms: _18  and  _20
REMARK    8  A    between atoms: _20  and  _21
REMARK    9  A    between atoms: _20  and  _23
REMARK   10  A    between atoms: _23  and  _24
REMARK   11  A    between atoms: _27  and  _29
REMARK   12  A    between atoms: _29  and  _30
REMARK   13  A    between atoms: _29  and  _32
REMARK   14  A    between atoms: _32  and  _33
REMARK   15  A    between atoms: _36  and  _38
REMARK   16  A    between atoms: _38  and  _39
REMARK   17  A    between atoms: _38  and  _41
REMARK   18  A    between atoms: _41  and  _42
REMARK   19  A    between atoms: _45  and  _47
REMARK   20  A    between atoms: _47  and  _48
REMARK   21  A    between atoms: _47  and  _50
REMARK   22  A    between atoms: _50  and  _51
REMARK   23  A    between atoms: _54  and  _56
REMARK   24  A    between atoms: _56  and  _57
REMARK   25  A    between atoms: _59  and  _61
REMARK   26  A    between atoms: _61  and  _62
REMARK   27  A    between atoms: _65  and  _67
REMARK   28  A    between atoms: _67  and  _68
REMARK   29  A    between atoms: _67  and  _70
REMARK   30  A    between atoms: _70  and  _71
REMARK   31  A    between atoms: _74  and  _76
REMARK   32  A    between atoms: _76  and  _77
REMARK   33  A    between atoms: _76  and  _79
REMARK   34  A    between atoms: _79  and  _80
REMARK   35  A    between atoms: _83  and  _85
REMARK   36  A    between atoms: _85  and  _86
REMARK   37  A    between atoms: _85  and  _88
REMARK   38  A    between atoms: _88  and  _89
REMARK   39  A    between atoms: _92  and  _94
REMARK   40  A    between atoms: _94  and  _95
REMARK   41  A    between atoms: _94  and  _97
REMARK   42  A    between atoms: _100  and  _102
REMARK   43  A    between atoms: _102  and  _103
REMARK   44  A    between atoms: _102  and  _105
REMARK   45  A    between atoms: _105  and  _106
REMARK   46  A    between atoms: _106  and  _107
REMARK   47  A    between atoms: _107  and  _108
REMARK   48  A    between atoms: _108  and  _109
REMARK   49  A    between atoms: _113  and  _115
REMARK   50  A    between atoms: _115  and  _116
REMARK   51  A    between atoms: _115  and  _118
REMARK   52  A    between atoms: _118  and  _119
REMARK   53  A    between atoms: _119  and  _120
REMARK   54  A    between atoms: _122  and  _124
REMARK   55  A    between atoms: _124  and  _125
REMARK   56  A    between atoms: _124  and  _127
REMARK   57  A    between atoms: _127  and  _128
REMARK   58  A    between atoms: _131  and  _133
REMARK   59  A    between atoms: _133  and  _134
REMARK   60  A    between atoms: _136  and  _138
REMARK   61  A    between atoms: _138  and  _139
REMARK   62  A    between atoms: _141  and  _143
REMARK   63  A    between atoms: _143  and  _144
REMARK   64  A    between atoms: _143  and  _146
REMARK   65  A    between atoms: _146  and  _147
REMARK   66  A    between atoms: _150  and  _152
REMARK   67  A    between atoms: _152  and  _153
REMARK   68  A    between atoms: _155  and  _157
REMARK   69  A    between atoms: _157  and  _158
REMARK   70  A    between atoms: _160  and  _162
REMARK   71  A    between atoms: _162  and  _163
REMARK   72  A    between atoms: _162  and  _165
REMARK   73  A    between atoms: _165  and  _166
REMARK   74  A    between atoms: _169  and  _171
REMARK   75  A    between atoms: _171  and  _172
REMARK   76  A    between atoms: _171  and  _174
REMARK   77  A    between atoms: _174  and  _175
REMARK   78  A    between atoms: _178  and  _180
REMARK   79  A    between atoms: _180  and  _181
REMARK   80  A    between atoms: _180  and  _183
REMARK   81  A    between atoms: _183  and  _184
REMARK   82  A    between atoms: _188  and  _189
REMARK   83  A    between atoms: _194  and  _196
REMARK   84  A    between atoms: _196  and  _197
REMARK   85  A    between atoms: _196  and  _199
REMARK   86  A    between atoms: _202  and  _204
REMARK   87  A    between atoms: _204  and  _205
REMARK   88  A    between atoms: _204  and  _207
REMARK   89  A    between atoms: _207  and  _208
REMARK   90  A    between atoms: _213  and  _215
REMARK   91  A    between atoms: _215  and  _216
REMARK   92  A    between atoms: _215  and  _218
REMARK   93  A    between atoms: _218  and  _219
REMARK   94  A    between atoms: _222  and  _224
REMARK   95  A    between atoms: _224  and  _225
REMARK   96  A    between atoms: _224  and  _227
REMARK   97  A    between atoms: _227  and  _228
REMARK   98  A    between atoms: _231  and  _233
REMARK   99  A    between atoms: _233  and  _234
REMARK  100  A    between atoms: _236  and  _238
REMARK  101  A    between atoms: _238  and  _239
REMARK  102  A    between atoms: _238  and  _241
REMARK  103  A    between atoms: _241  and  _242
REMARK  104  A    between atoms: _242  and  _243
REMARK  105  A    between atoms: _243  and  _244
REMARK  106  A    between atoms: _253  and  _255
REMARK  107  A    between atoms: _255  and  _256
REMARK  108  A    between atoms: _255  and  _258
REMARK  109  A    between atoms: _258  and  _259
REMARK  110  A    between atoms: _264  and  _266
REMARK  111  A    between atoms: _266  and  _267
REMARK  112  A    between atoms: _266  and  _269
REMARK  113  A    between atoms: _269  and  _270
REMARK  114  A    between atoms: _270  and  _271
REMARK  115  A    between atoms: _271  and  _272
REMARK  116  A    between atoms: _281  and  _283
REMARK  117  A    between atoms: _283  and  _284
REMARK  118  A    between atoms: _283  and  _286
REMARK  119  A    between atoms: _286  and  _287
REMARK  120  A    between atoms: _290  and  _292
REMARK  121  A    between atoms: _292  and  _293
REMARK  122  A    between atoms: _292  and  _295
REMARK  123  A    between atoms: _295  and  _296
REMARK  124  A    between atoms: _299  and  _301
REMARK  125  A    between atoms: _301  and  _302
REMARK  126  A    between atoms: _301  and  _304
REMARK  127  A    between atoms: _304  and  _305
REMARK  128  A    between atoms: _308  and  _310
REMARK  129  A    between atoms: _310  and  _311
REMARK  130  A    between atoms: _310  and  _313
REMARK  131  A    between atoms: _313  and  _314
REMARK  132  A    between atoms: _317  and  _319
REMARK  133  A    between atoms: _319  and  _320
REMARK  134  A    between atoms: _322  and  _324
REMARK  135  A    between atoms: _324  and  _325
REMARK  136  A    between atoms: _328  and  _330
REMARK  137  A    between atoms: _330  and  _331
REMARK  138  A    between atoms: _330  and  _333
REMARK  139  A    between atoms: _333  and  _334
REMARK  140  A    between atoms: _337  and  _339
REMARK  141  A    between atoms: _339  and  _340
REMARK  142  A    between atoms: _339  and  _342
REMARK  143  A    between atoms: _342  and  _343
REMARK  144  A    between atoms: _346  and  _348
REMARK  145  A    between atoms: _348  and  _349
REMARK  146  A    between atoms: _348  and  _351
REMARK  147  A    between atoms: _351  and  _352
REMARK  148  A    between atoms: _355  and  _357
REMARK  149  A    between atoms: _357  and  _358
REMARK  150  A    between atoms: _357  and  _360
REMARK  151  A    between atoms: _363  and  _365
REMARK  152  A    between atoms: _365  and  _366
REMARK  153  A    between atoms: _365  and  _368
REMARK  154  A    between atoms: _368  and  _369
REMARK  155  A    between atoms: _369  and  _370
REMARK  156  A    between atoms: _370  and  _371
REMARK  157  A    between atoms: _371  and  _372
REMARK  158  A    between atoms: _376  and  _378
REMARK  159  A    between atoms: _378  and  _379
REMARK  160  A    between atoms: _378  and  _381
REMARK  161  A    between atoms: _381  and  _382
REMARK  162  A    between atoms: _385  and  _387
REMARK  163  A    between atoms: _387  and  _388
REMARK  164  A    between atoms: _390  and  _392
REMARK  165  A    between atoms: _392  and  _393
REMARK  166  A    between atoms: _395  and  _397
REMARK  167  A    between atoms: _397  and  _398
REMARK  168  A    between atoms: _397  and  _400
REMARK  169  A    between atoms: _400  and  _401
REMARK  170  A    between atoms: _404  and  _406
REMARK  171  A    between atoms: _406  and  _407
REMARK  172  A    between atoms: _409  and  _411
REMARK  173  A    between atoms: _411  and  _412
REMARK  174  A    between atoms: _414  and  _416
REMARK  175  A    between atoms: _416  and  _417
REMARK  176  A    between atoms: _416  and  _419
REMARK  177  A    between atoms: _419  and  _420
REMARK  178  A    between atoms: _423  and  _425
REMARK  179  A    between atoms: _425  and  _426
REMARK  180  A    between atoms: _425  and  _428
REMARK  181  A    between atoms: _428  and  _429
REMARK  182  A    between atoms: _433  and  _434
REMARK  183  A    between atoms: _439  and  _441
REMARK  184  A    between atoms: _441  and  _442
REMARK  185  A    between atoms: _441  and  _444
REMARK  186  A    between atoms: _444  and  _445
REMARK  187  A    between atoms: _449  and  _450
REMARK  188  A    between atoms: _455  and  _457
REMARK  189  A    between atoms: _457  and  _458
REMARK  190  A    between atoms: _457  and  _460
REMARK  191  A    between atoms: _463  and  _465
REMARK  192  A    between atoms: _465  and  _466
REMARK  193  A    between atoms: _465  and  _468
REMARK  194  A    between atoms: _468  and  _469
REMARK  195  A    between atoms: _474  and  _476
REMARK  196  A    between atoms: _476  and  _477
REMARK  197  A    between atoms: _476  and  _479
REMARK  198  A    between atoms: _479  and  _480
REMARK  199  A    between atoms: _483  and  _485
REMARK  200  A    between atoms: _485  and  _486
REMARK  201  A    between atoms: _485  and  _488
REMARK  202  A    between atoms: _488  and  _489
REMARK  203  A    between atoms: _492  and  _494
REMARK  204  A    between atoms: _494  and  _495
REMARK  205  A    between atoms: _497  and  _499
REMARK  206  A    between atoms: _499  and  _500
REMARK  207  A    between atoms: _499  and  _502
REMARK  208  A    between atoms: _502  and  _503
REMARK  209  A    between atoms: _503  and  _504
REMARK  210  A    between atoms: _504  and  _505
REMARK  211  A    between atoms: _514  and  _516
REMARK  212  A    between atoms: _516  and  _517
REMARK  213  A    between atoms: _516  and  _519
REMARK  214  A    between atoms: _519  and  _520
REMARK                            x       y       z     vdW  Elec       q    Type
REMARK                         _______ _______ _______ _____ _____    ______ ____
ROOT
ATOM      1  CA  LEU A   1      13.267  12.649  21.889  0.00  0.00    +0.133 C 
ENDROOT
BRANCH   1   2
ATOM      2  N   LEU A   1      14.084  13.823  22.127  0.00  0.00    -0.239 NA
ATOM      3  H   LEU A   1      14.221  14.510  21.359  0.00  0.00    +0.142 HD
ENDBRANCH   1   2
BRANCH   1   4
ATOM      4  C   LEU A   1      14.159  11.677  21.131  0.00  0.00    +0.224 C 
ATOM      5  O   LEU A   1      14.874  12.080  20.233  0.00  0.00    -0.287 OA
ENDBRANCH   1   4
BRANCH   1   6
ATOM      6  CB  LEU A   1      12.040  13.009  21.040  0.00  0.00    +0.025 C 
BRANCH   6   7
ATOM      7  CG  LEU A   1      11.213  14.188  21.548  0.00  0.00    +0.002 C 
ATOM      8  CD2 LEU A   1      10.746  13.923  22.953  0.00  0.00    +0.000 C 
ATOM      9  CD1 LEU A   1      10.034  14.416  20.629  0.00  0.00    +0.000 C 
ENDBRANCH   6   7
ENDBRANCH   1   6
TORSDOF 4
REMARK  Name = ../refined-set-2016/1hpv/1hpv_pocket.pdb
REMARK  214 active torsions:
REMARK  status: ('A' for Active; 'I' for Inactive)
REMARK    1  A    between atoms: _1  and  _3
REMARK    2  A    between atoms: _3  and  _4
REMARK    3  A    between atoms: _3  and  _6
REMARK    4  A    between atoms: _6  and  _7
REMARK    5  A    between atoms: _7  and  _8
REMARK    6  A    between atoms: _8  and  _9
REMARK    7  A    between atoms: _18  and  _20
REMARK    8  A    between atoms: _20  and  _21
REMARK    9  A    between atoms: _20  and  _23
REMARK   10  A    between atoms: _23  and  _24
REMARK   11  A    between atoms: _27  and  _29
REMARK   12  A    between atoms: _29  and  _30
REMARK   13  A    between atoms: _29  and  _32
REMARK   14  A    between atoms: _32  and  _33
REMARK   15  A    between atoms: _36  and  _38
REMARK   16  A    between atoms: _38  and  _39
REMARK   17  A    between atoms: _38  and  _41
REMARK   18  A    between atoms: _41  and  _42
REMARK   19  A    between atoms: _45  and  _47
REMARK   20  A    between atoms: _47  and  _48
REMARK   21  A    between atoms: _47  and  _50
REMARK   22  A    between atoms: _50  and  _51
REMARK   23  A    between atoms: _54  and  _56
REMARK   24  A    between atoms: _56  and  _57
REMARK   25  A    between atoms: _59  and  _61
REMARK   26  A    between atoms: _61  and  _62
REMARK   27  A    between atoms: _65  and  _67
REMARK   28  A    between atoms: _67  and  _68
REMARK   29  A    between atoms: _67  and  _70
REMARK   30  A    between atoms: _70  and  _71
REMARK   31  A    between atoms: _74  and  _76
REMARK   32  A    between atoms: _76  and  _77
REMARK   33  A    between atoms: _76  and  _79
REMARK   34  A    between atoms: _79  and  _80
REMARK   35  A    between atoms: _83  and  _85
REMARK   36  A    between atoms: _85  and  _86
REMARK   37  A    between atoms: _85  and  _88
REMARK   38  A    between atoms: _88  and  _89
REMARK   39  A    between atoms: _92  and  _94
REMARK   40  A    between atoms: _94  and  _95
REMARK   41  A    between atoms: _94  and  _97
REMARK   42  A    between atoms: _100  and  _102
REMARK   43  A    between atoms: _102  and  _103
REMARK   44  A    between atoms: _102  and  _105
REMARK   45  A    between atoms: _105  and  _106
REMARK   46  A    between atoms: _106  and  _107
REMARK   47  A    between atoms: _107  and  _108
REMARK   48  A    between atoms: _108  and  _109
REMARK   49  A    between atoms: _113  and  _115
REMARK   50  A    between atoms: _115  and  _116
REMARK   51  A    between atoms: _115  and  _118
REMARK   52  A    between atoms: _118  and  _119
REMARK   53  A    between atoms: _119  and  _120
REMARK   54  A    between atoms: _122  and  _124
REMARK   55  A    between atoms: _124  and  _125
REMARK   56  A    between atoms: _124  and  _127
REMARK   57  A    between atoms: _127  and  _128
REMARK   58  A    between atoms: _131  and  _133
REMARK   59  A    between atoms: _133  and  _134
REMARK   60  A    between atoms: _136  and  _138
REMARK   61  A    between atoms: _138  and  _139
REMARK   62  A    between atoms: _141  and  _143
REMARK   63  A    between atoms: _143  and  _144
REMARK   64  A    between atoms: _143  and  _146
REMARK   65  A    between atoms: _146  and  _147
REMARK   66  A    between atoms: _150  and  _152
REMARK   67  A    between atoms: _152  and  _153
REMARK   68  A    between atoms: _155  and  _157
REMARK   69  A    between atoms: _157  and  _158
REMARK   70  A    between atoms: _160  and  _162
REMARK   71  A    between atoms: _162  and  _163
REMARK   72  A    between atoms: _162  and  _165
REMARK   73  A    between atoms: _165  and  _166
REMARK   74  A    between atoms: _169  and  _171
REMARK   75  A    between atoms: _171  and  _172
REMARK   76  A    between atoms: _171  and  _174
REMARK   77  A    between atoms: _174  and  _175
REMARK   78  A    between atoms: _178  and  _180
REMARK   79  A    between atoms: _180  and  _181
REMARK   80  A    between atoms: _180  and  _183
REMARK   81  A    between atoms: _183  and  _184
REMARK   82  A    between atoms: _188  and  _189
REMARK   83  A    between atoms: _194  and  _196
REMARK   84  A    between atoms: _196  and  _197
REMARK   85  A    between atoms: _196  and  _199
REMARK   86  A    between atoms: _202  and  _204
REMARK   87  A    between atoms: _204  and  _205
REMARK   88  A    between atoms: _204  and  _207
REMARK   89  A    between atoms: _207  and  _208
REMARK   90  A    between atoms: _213  and  _215
REMARK   91  A    between atoms: _215  and  _216
REMARK   92  A    between atoms: _215  and  _218
REMARK   93  A    between atoms: _218  and  _219
REMARK   94  A    between atoms: _222  and  _224
REMARK   95  A    between atoms: _224  and  _225
REMARK   96  A    between atoms: _224  and  _227
REMARK   97  A    between atoms: _227  and  _228
REMARK   98  A    between atoms: _231  and  _233
REMARK   99  A    between atoms: _233  and  _234
REMARK  100  A    between atoms: _236  and  _238
REMARK  101  A    between atoms: _238  and  _239
REMARK  102  A    between atoms: _238  and  _241
REMARK  103  A    between atoms: _241  and  _242
REMARK  104  A    between atoms: _242  and  _243
REMARK  105  A    between atoms: _243  and  _244
REMARK  106  A    between atoms: _253  and  _255
REMARK  107  A    between atoms: _255  and  _256
REMARK  108  A    between atoms: _255  and  _258
REMARK  109  A    between atoms: _258  and  _259
REMARK  110  A    between atoms: _264  and  _266
REMARK  111  A    between atoms: _266  and  _267
REMARK  112  A    between atoms: _266  and  _269
REMARK  113  A    between atoms: _269  and  _270
REMARK  114  A    between atoms: _270  and  _271
REMARK  115  A    between atoms: _271  and  _272
REMARK  116  A    between atoms: _281  and  _283
REMARK  117  A    between atoms: _283  and  _284
REMARK  118  A    between atoms: _283  and  _286
REMARK  119  A    between atoms: _286  and  _287
REMARK  120  A    between atoms: _290  and  _292
REMARK  121  A    between atoms: _292  and  _293
REMARK  122  A    between atoms: _292  and  _295
REMARK  123  A    between atoms: _295  and  _296
REMARK  124  A    between atoms: _299  and  _301
REMARK  125  A    between atoms: _301  and  _302
REMARK  126  A    between atoms: _301  and  _304
REMARK  127  A    between atoms: _304  and  _305
REMARK  128  A    between atoms: _308  and  _310
REMARK  129  A    between atoms: _310  and  _311
REMARK  130  A    between atoms: _310  and  _313
REMARK  131  A    between atoms: _313  and  _314
REMARK  132  A    between atoms: _317  and  _319
REMARK  133  A    between atoms: _319  and  _320
REMARK  134  A    between atoms: _322  and  _324
REMARK  135  A    between atoms: _324  and  _325
REMARK  136  A    between atoms: _328  and  _330
REMARK  137  A    between atoms: _330  and  _331
REMARK  138  A    between atoms: _330  and  _333
REMARK  139  A    between atoms: _333  and  _334
REMARK  140  A    between atoms: _337  and  _339
REMARK  141  A    between atoms: _339  and  _340
REMARK  142  A    between atoms: _339  and  _342
REMARK  143  A    between atoms: _342  and  _343
REMARK  144  A    between atoms: _346  and  _348
REMARK  145  A    between atoms: _348  and  _349
REMARK  146  A    between atoms: _348  and  _351
REMARK  147  A    between atoms: _351  and  _352
REMARK  148  A    between atoms: _355  and  _357
REMARK  149  A    between atoms: _357  and  _358
REMARK  150  A    between atoms: _357  and  _360
REMARK  151  A    between atoms: _363  and  _365
REMARK  152  A    between atoms: _365  and  _366
REMARK  153  A    between atoms: _365  and  _368
REMARK  154  A    between atoms: _368  and  _369
REMARK  155  A    between atoms: _369  and  _370
REMARK  156  A    between atoms: _370  and  _371
REMARK  157  A    between atoms: _371  and  _372
REMARK  158  A    between atoms: _376  and  _378
REMARK  159  A    between atoms: _378  and  _379
REMARK  160  A    between atoms: _378  and  _381
REMARK  161  A    between atoms: _381  and  _382
REMARK  162  A    between atoms: _385  and  _387
REMARK  163  A    between atoms: _387  and  _388
REMARK  164  A    between atoms: _390  and  _392
REMARK  165  A    between atoms: _392  and  _393
REMARK  166  A    between atoms: _395  and  _397
REMARK  167  A    between atoms: _397  and  _398
REMARK  168  A    between atoms: _397  and  _400
REMARK  169  A    between atoms: _400  and  _401
REMARK  170  A    between atoms: _404  and  _406
REMARK  171  A    between atoms: _406  and  _407
REMARK  172  A    between atoms: _409  and  _411
REMARK  173  A    between atoms: _411  and  _412
REMARK  174  A    between atoms: _414  and  _416
REMARK  175  A    between atoms: _416  and  _417
REMARK  176  A    between atoms: _416  and  _419
REMARK  177  A    between atoms: _419  and  _420
REMARK  178  A    between atoms: _423  and  _425
REMARK  179  A    between atoms: _425  and  _426
REMARK  180  A    between atoms: _425  and  _428
REMARK  181  A    between atoms: _428  and  _429
REMARK  182  A    between atoms: _433  and  _434
REMARK  183  A    between atoms: _439  and  _441
REMARK  184  A    between atoms: _441  and  _442
REMARK  185  A    between atoms: _441  and  _444
REMARK  186  A    between atoms: _444  and  _445
REMARK  187  A    between atoms: _449  and  _450
REMARK  188  A    between atoms: _455  and  _457
REMARK  189  A    between atoms: _457  and  _458
REMARK  190  A    between atoms: _457  and  _460
REMARK  191  A    between atoms: _463  and  _465
REMARK  192  A    between atoms: _465  and  _466
REMARK  193  A    between atoms: _465  and  _468
REMARK  194  A    between atoms: _468  and  _469
REMARK  195  A    between atoms: _474  and  _476
REMARK  196  A    between atoms: _476  and  _477
REMARK  197  A    between atoms: _476  and  _479
REMARK  198  A    between atoms: _479  and  _480
REMARK  199  A    between atoms: _483  and  _485
REMARK  200  A    between atoms: _485  and  _486
REMARK  201  A    between atoms: _485  and  _488
REMARK  202  A    between atoms: _488  and  _489
REMARK  203  A    between atoms: _492  and  _494
REMARK  204  A    between atoms: _494  and  _495
REMARK  205  A    between atoms: _497  and  _499
REMARK  206  A    between atoms: _499  and  _500
REMARK  207  A    between atoms: _499  and  _502
REMARK  208  A    between atoms: _502  and  _503
REMARK  209  A    between atoms: _503  and  _504
REMARK  210  A    between atoms: _504  and  _505
REMARK  211  A    between atoms: _514  and  _516
REMARK  212  A    between atoms: _516  and  _517
REMARK  213  A    between atoms: _516  and  _519
REMARK  214  A    between atoms: _519  and  _520
REMARK                            x       y       z     vdW  Elec       q    Type
REMARK                         _______ _______ _______ _____ _____    ______ ____
ROOT
ATOM      1  CA  ILE A   6      16.737  16.343  13.855  0.00  0.00    +0.149 C 
ENDROOT
BRANCH   1   3
ATOM      2  C   ASN A   5      18.291  14.548  13.328  0.00  0.00    +0.241 C 
ATOM      3  N   ILE A   6      17.322  15.032  14.089  0.00  0.00    -0.297 N 
ATOM      4  H   ILE A   6      16.968  14.456  14.879  0.00  0.00    +0.150 HD
ATOM      5  O   ASN A   5      18.788  15.179  12.396  0.00  0.00    -0.273 OA
BRANCH   2   6
ATOM      6  CA  ASN A   5      18.775  13.146  13.642  0.00  0.00    +0.158 C 
BRANCH   6   9
ATOM      7  C   VAL A   4      17.615  12.094  11.786  0.00  0.00    +0.241 C 
ATOM      8  O   VAL A   4      16.569  12.060  12.427  0.00  0.00    -0.273 OA
ATOM      9  N   ASN A   5      18.758  12.521  12.321  0.00  0.00    -0.297 N 
ATOM     10  H   ASN A   5      19.647  12.408  11.793  0.00  0.00    +0.150 HD
BRANCH   7  11
ATOM     11  CA  VAL A   4      17.666  11.509  10.369  0.00  0.00    +0.149 C 
BRANCH  11  13
ATOM     12  C   PRO A   3      16.733   9.340   9.703  0.00  0.00    +0.241 C 
ATOM     13  N   VAL A   4      16.566  10.573  10.183  0.00  0.00    -0.297 N 
ATOM     14  H   VAL A   4      15.605  10.880  10.436  0.00  0.00    +0.150 HD
ATOM     15  O   PRO A   3      17.843   8.862   9.423  0.00  0.00    -0.273 OA
BRANCH  12  22
ATOM     16  C   THR A   2      14.809   8.387  11.914  0.00  0.00    +0.246 C 
ATOM     17  O   THR A   2      15.835   7.760  12.197  0.00  0.00    -0.273 OA
ATOM     18  N   PRO A   3      14.539   8.799  10.668  0.00  0.00    -0.272 N 
ATOM     19  CD  PRO A   3      13.278   9.387  10.185  0.00  0.00    +0.094 C 
ATOM     20  CG  PRO A   3      13.221   8.875   8.783  0.00  0.00    +0.024 C 
ATOM     21  CB  PRO A   3      14.639   8.978   8.332  0.00  0.00    +0.031 C 
ATOM     22  CA  PRO A   3      15.444   8.512   9.551  0.00  0.00    +0.152 C 
BRANCH  16  23
ATOM     23  CA  THR A   2      13.818   8.748  12.989  0.00  0.00    +0.176 C 
BRANCH  23  25
ATOM     24  C   PRO A   1      12.601   6.888  13.954  0.00  0.00    +0.239 C 
ATOM     25  N   THR A   2      13.689   7.647  13.927  0.00  0.00    -0.295 N 
ATOM     26  H   THR A   2      14.465   7.449  14.591  0.00  0.00    +0.150 HD
ATOM     27  O   PRO A   1      11.652   7.051  13.173  0.00  0.00    -0.274 OA
BRANCH  24  32
ATOM     28  N   PRO A   1      12.544   6.124  16.388  0.00  0.00    -0.210 NA
ATOM     29  CD  PRO A   1      11.330   5.584  17.016  0.00  0.00    +0.089 C 
ATOM     30  CG  PRO A   1      11.117   4.340  16.219  0.00  0.00    +0.021 C 
ATOM     31  CB  PRO A   1      11.352   4.859  14.821  0.00  0.00    +0.028 C 
ATOM     32  CA  PRO A   1      12.591   5.748  14.973  0.00  0.00    +0.149 C 
ENDBRANCH  24  32
ENDBRANCH  23  25
BRANCH  23  33
ATOM     33  CB  THR A   2      14.386   9.976  13.649  0.00  0.00    +0.137 C 
ATOM     34  CG2 THR A   2      13.966  11.214  12.864  0.00  0.00    +0.034 C 
BRANCH  33  35
ATOM     35  OG1 THR A   2      13.906  10.045  14.991  0.00  0.00    -0.382 OA
ATOM     36  HG1 THR A   2      14.193   9.236  15.485  0.00  0.00    +0.210 HD
ENDBRANCH  33  35
ENDBRANCH  23  33
ENDBRANCH  16  23
ENDBRANCH  12  22
ENDBRANCH  11  13
BRANCH  11  37
ATOM     37  CB  VAL A   4      17.552  12.681   9.350  0.00  0.00    +0.027 C 
ATOM     38  CG2 VAL A   4      18.878  13.389   9.218  0.00  0.00    +0.002 C 
ATOM     39  CG1 VAL A   4      17.119  12.183   8.001  0.00  0.00    +0.002 C 
ENDBRANCH  11  37
ENDBRANCH   7  11
ENDBRANCH   6   9
BRANCH   6  40
ATOM     40  CB  ASN A   5      20.190  13.216  14.217  0.00  0.00    +0.114 C 
BRANCH  40  41
ATOM     41  CG  ASN A   5      20.712  11.872  14.618  0.00  0.00    +0.222 C 
ATOM     42  OD1 ASN A   5      19.991  11.063  15.180  0.00  0.00    -0.275 OA
ATOM     43  ND2 ASN A   5      21.969  11.620  14.329  0.00  0.00    -0.329 N 
ATOM     44 HD21 ASN A   5      22.386  10.701  14.580  0.00  0.00    +0.145 HD
ATOM     45 HD22 ASN A   5      22.547  12.340  13.849  0.00  0.00    +0.145 HD
ENDBRANCH  40  41
ENDBRANCH   6  40
ENDBRANCH   2   6
ENDBRANCH   1   3
BRANCH   1  46
ATOM     46  C   ILE A   6      16.929  17.282  15.043  0.00  0.00    +0.241 C 
ATOM     47  O   ILE A   6      16.767  16.871  16.186  0.00  0.00    -0.273 OA
ATOM     48  N   ILE A   7      17.362  18.513  14.773  0.00  0.00    -0.297 N 
ATOM     49  H   ILE A   7      17.609  18.762  13.794  0.00  0.00    +0.150 HD
BRANCH  48  50
ATOM     50  CA  ILE A   7      17.497  19.518  15.818  0.00  0.00    +0.149 C 
BRANCH  50  51
ATOM     51  C   ILE A   7      16.339  20.467  15.526  0.00  0.00    +0.241 C 
ATOM     52  N   GLY A   8      15.360  20.505  16.421  0.00  0.00    -0.295 N 
ATOM     53  H   GLY A   8      15.425  19.919  17.278  0.00  0.00    +0.150 HD
ATOM     54  O   ILE A   7      16.302  21.084  14.468  0.00  0.00    -0.273 OA
BRANCH  52  55
ATOM     55  CA  GLY A   8      14.207  21.349  16.221  0.00  0.00    +0.176 C 
BRANCH  55  56
ATOM     56  C   GLY A   8      14.301  22.703  16.872  0.00  0.00    +0.243 C 
ATOM     57  O   GLY A   8      15.320  23.065  17.454  0.00  0.00    -0.273 OA
ATOM     58  N   ARG A   9      13.192  23.427  16.840  0.00  0.00    -0.297 N 
ATOM     59  H   ARG A   9      12.336  23.017  16.414  0.00  0.00    +0.150 HD
BRANCH  58  60
ATOM     60  CA  ARG A   9      13.130  24.781  17.382  0.00  0.00    +0.149 C 
BRANCH  60  61
ATOM     61  C   ARG A   9      13.372  24.939  18.870  0.00  0.00    +0.241 C 
ATOM     62  N   ASN A  10      13.132  23.888  19.639  0.00  0.00    -0.298 N 
ATOM     63  H   ASN A  10      12.777  23.010  19.209  0.00  0.00    +0.150 HD
ATOM     64  O   ARG A   9      13.820  25.995  19.314  0.00  0.00    -0.273 OA
BRANCH  62  65
ATOM     65  CA  ASN A  10      13.356  23.940  21.074  0.00  0.00    +0.146 C 
BRANCH  65  66
ATOM     66  C   ASN A  10      14.841  24.132  21.390  0.00  0.00    +0.227 C 
ATOM     67  O   ASN A  10      15.202  24.606  22.471  0.00  0.00    -0.286 OA
ENDBRANCH  65  66
BRANCH  65  68
ATOM     68  CB  ASN A  10      12.803  22.675  21.754  0.00  0.00    +0.112 C 
BRANCH  68  69
ATOM     69  CG  ASN A  10      13.647  21.434  21.489  0.00  0.00    +0.222 C 
ATOM     70  ND2 ASN A  10      14.092  20.786  22.551  0.00  0.00    -0.329 N 
ATOM     71 HD21 ASN A  10      13.874  21.139  23.505  0.00  0.00    +0.145 HD
ATOM     72 HD22 ASN A  10      14.660  19.923  22.433  0.00  0.00    +0.145 HD
ATOM     73  OD1 ASN A  10      13.877  21.058  20.349  0.00  0.00    -0.275 OA
ENDBRANCH  68  69
ENDBRANCH  65  68
ENDBRANCH  62  65
ENDBRANCH  60  61
BRANCH  60  74
ATOM     74  CB  ARG A   9      11.822  25.430  16.990  0.00  0.00    +0.033 C 
BRANCH  74  75
ATOM     75  CG  ARG A   9      11.712  25.732  15.502  0.00  0.00    +0.045 C 
BRANCH  75  76
ATOM     76  CD  ARG A   9      10.276  26.088  15.131  0.00  0.00    +0.174 C 
BRANCH  76  77
ATOM     77  NE  ARG A   9       9.603  26.762  16.239  0.00  0.00    -0.265 N 
ATOM     78  CZ  ARG A   9       8.467  26.338  16.774  0.00  0.00    +0.342 C 
ATOM     79  NH2 ARG A   9       7.921  26.990  17.784  0.00  0.00    -0.292 N 
ATOM     80 HH21 ARG A   9       7.029  26.652  18.200  0.00  0.00    +0.255 HD
ATOM     81 HH22 ARG A   9       8.382  27.841  18.164  0.00  0.00    +0.255 HD
ATOM     82  NH1 ARG A   9       7.874  25.264  16.282  0.00  0.00    -0.292 N 
ATOM     83 HH11 ARG A   9       6.982  24.926  16.697  0.00  0.00    +0.255 HD
ATOM     84 HH12 ARG A   9       8.299  24.757  15.480  0.00  0.00    +0.255 HD
ATOM     85  HE  ARG A   9      10.039  27.622  16.629  0.00  0.00    +0.259 HD
ENDBRANCH  76  77
ENDBRANCH  75  76
ENDBRANCH  74  75
ENDBRANCH  60  74
ENDBRANCH  58  60
ENDBRANCH  55  56
ENDBRANCH  52  55
ENDBRANCH  50  51
BRANCH  50  86
ATOM     86  CB  ILE A   7      18.811  20.303  15.741  0.00  0.00    +0.027 C 
ATOM     87  CG2 ILE A   7      18.905  21.226  16.942  0.00  0.00    +0.002 C 
BRANCH  86  88
ATOM     88  CG1 ILE A   7      20.021  19.366  15.757  0.00  0.00    +0.002 C 
ATOM     89  CD1 ILE A   7      20.274  18.695  17.103  0.00  0.00    +0.000 C 
ENDBRANCH  86  88
ENDBRANCH  50  86
ENDBRANCH  48  50
ENDBRANCH   1  46
BRANCH   1  90
ATOM     90  CB  ILE A   6      15.213  16.165  13.529  0.00  0.00    +0.027 C 
ATOM     91  CG2 ILE A   6      14.445  17.428  13.714  0.00  0.00    +0.002 C 
BRANCH  90  92
ATOM     92  CG1 ILE A   6      15.042  15.652  12.110  0.00  0.00    +0.002 C 
ATOM     93  CD1 ILE A   6      13.677  15.170  11.859  0.00  0.00    +0.000 C 
ENDBRANCH  90  92
ENDBRANCH   1  90
TORSDOF 33
REMARK  Name = ../refined-set-2016/1hpv/1hpv_pocket.pdb
REMARK  214 active torsions:
REMARK  status: ('A' for Active; 'I' for Inactive)
REMARK    1  A    between atoms: _1  and  _3
REMARK    2  A    between atoms: _3  and  _4
REMARK    3  A    between atoms: _3  and  _6
REMARK    4  A    between atoms: _6  and  _7
REMARK    5  A    between atoms: _7  and  _8
REMARK    6  A    between atoms: _8  and  _9
REMARK    7  A    between atoms: _18  and  _20
REMARK    8  A    between atoms: _20  and  _21
REMARK    9  A    between atoms: _20  and  _23
REMARK   10  A    between atoms: _23  and  _24
REMARK   11  A    between atoms: _27  and  _29
REMARK   12  A    between atoms: _29  and  _30
REMARK   13  A    between atoms: _29  and  _32
REMARK   14  A    between atoms: _32  and  _33
REMARK   15  A    between atoms: _36  and  _38
REMARK   16  A    between atoms: _38  and  _39
REMARK   17  A    between atoms: _38  and  _41
REMARK   18  A    between atoms: _41  and  _42
REMARK   19  A    between atoms: _45  and  _47
REMARK   20  A    between atoms: _47  and  _48
REMARK   21  A    between atoms: _47  and  _50
REMARK   22  A    between atoms: _50  and  _51
REMARK   23  A    between atoms: _54  and  _56
REMARK   24  A    between atoms: _56  and  _57
REMARK   25  A    between atoms: _59  and  _61
REMARK   26  A    between atoms: _61  and  _62
REMARK   27  A    between atoms: _65  and  _67
REMARK   28  A    between atoms: _67  and  _68
REMARK   29  A    between atoms: _67  and  _70
REMARK   30  A    between atoms: _70  and  _71
REMARK   31  A    between atoms: _74  and  _76
REMARK   32  A    between atoms: _76  and  _77
REMARK   33  A    between atoms: _76  and  _79
REMARK   34  A    between atoms: _79  and  _80
REMARK   35  A    between atoms: _83  and  _85
REMARK   36  A    between atoms: _85  and  _86
REMARK   37  A    between atoms: _85  and  _88
REMARK   38  A    between atoms: _88  and  _89
REMARK   39  A    between atoms: _92  and  _94
REMARK   40  A    between atoms: _94  and  _95
REMARK   41  A    between atoms: _94  and  _97
REMARK   42  A    between atoms: _100  and  _102
REMARK   43  A    between atoms: _102  and  _103
REMARK   44  A    between atoms: _102  and  _105
REMARK   45  A    between atoms: _105  and  _106
REMARK   46  A    between atoms: _106  and  _107
REMARK   47  A    between atoms: _107  and  _108
REMARK   48  A    between atoms: _108  and  _109
REMARK   49  A    between atoms: _113  and  _115
REMARK   50  A    between atoms: _115  and  _116
REMARK   51  A    between atoms: _115  and  _118
REMARK   52  A    between atoms: _118  and  _119
REMARK   53  A    between atoms: _119  and  _120
REMARK   54  A    between atoms: _122  and  _124
REMARK   55  A    between atoms: _124  and  _125
REMARK   56  A    between atoms: _124  and  _127
REMARK   57  A    between atoms: _127  and  _128
REMARK   58  A    between atoms: _131  and  _133
REMARK   59  A    between atoms: _133  and  _134
REMARK   60  A    between atoms: _136  and  _138
REMARK   61  A    between atoms: _138  and  _139
REMARK   62  A    between atoms: _141  and  _143
REMARK   63  A    between atoms: _143  and  _144
REMARK   64  A    between atoms: _143  and  _146
REMARK   65  A    between atoms: _146  and  _147
REMARK   66  A    between atoms: _150  and  _152
REMARK   67  A    between atoms: _152  and  _153
REMARK   68  A    between atoms: _155  and  _157
REMARK   69  A    between atoms: _157  and  _158
REMARK   70  A    between atoms: _160  and  _162
REMARK   71  A    between atoms: _162  and  _163
REMARK   72  A    between atoms: _162  and  _165
REMARK   73  A    between atoms: _165  and  _166
REMARK   74  A    between atoms: _169  and  _171
REMARK   75  A    between atoms: _171  and  _172
REMARK   76  A    between atoms: _171  and  _174
REMARK   77  A    between atoms: _174  and  _175
REMARK   78  A    between atoms: _178  and  _180
REMARK   79  A    between atoms: _180  and  _181
REMARK   80  A    between atoms: _180  and  _183
REMARK   81  A    between atoms: _183  and  _184
REMARK   82  A    between atoms: _188  and  _189
REMARK   83  A    between atoms: _194  and  _196
REMARK   84  A    between atoms: _196  and  _197
REMARK   85  A    between atoms: _196  and  _199
REMARK   86  A    between atoms: _202  and  _204
REMARK   87  A    between atoms: _204  and  _205
REMARK   88  A    between atoms: _204  and  _207
REMARK   89  A    between atoms: _207  and  _208
REMARK   90  A    between atoms: _213  and  _215
REMARK   91  A    between atoms: _215  and  _216
REMARK   92  A    between atoms: _215  and  _218
REMARK   93  A    between atoms: _218  and  _219
REMARK   94  A    between atoms: _222  and  _224
REMARK   95  A    between atoms: _224  and  _225
REMARK   96  A    between atoms: _224  and  _227
REMARK   97  A    between atoms: _227  and  _228
REMARK   98  A    between atoms: _231  and  _233
REMARK   99  A    between atoms: _233  and  _234
REMARK  100  A    between atoms: _236  and  _238
REMARK  101  A    between atoms: _238  and  _239
REMARK  102  A    between atoms: _238  and  _241
REMARK  103  A    between atoms: _241  and  _242
REMARK  104  A    between atoms: _242  and  _243
REMARK  105  A    between atoms: _243  and  _244
REMARK  106  A    between atoms: _253  and  _255
REMARK  107  A    between atoms: _255  and  _256
REMARK  108  A    between atoms: _255  and  _258
REMARK  109  A    between atoms: _258  and  _259
REMARK  110  A    between atoms: _264  and  _266
REMARK  111  A    between atoms: _266  and  _267
REMARK  112  A    between atoms: _266  and  _269
REMARK  113  A    between atoms: _269  and  _270
REMARK  114  A    between atoms: _270  and  _271
REMARK  115  A    between atoms: _271  and  _272
REMARK  116  A    between atoms: _281  and  _283
REMARK  117  A    between atoms: _283  and  _284
REMARK  118  A    between atoms: _283  and  _286
REMARK  119  A    between atoms: _286  and  _287
REMARK  120  A    between atoms: _290  and  _292
REMARK  121  A    between atoms: _292  and  _293
REMARK  122  A    between atoms: _292  and  _295
REMARK  123  A    between atoms: _295  and  _296
REMARK  124  A    between atoms: _299  and  _301
REMARK  125  A    between atoms: _301  and  _302
REMARK  126  A    between atoms: _301  and  _304
REMARK  127  A    between atoms: _304  and  _305
REMARK  128  A    between atoms: _308  and  _310
REMARK  129  A    between atoms: _310  and  _311
REMARK  130  A    between atoms: _310  and  _313
REMARK  131  A    between atoms: _313  and  _314
REMARK  132  A    between atoms: _317  and  _319
REMARK  133  A    between atoms: _319  and  _320
REMARK  134  A    between atoms: _322  and  _324
REMARK  135  A    between atoms: _324  and  _325
REMARK  136  A    between atoms: _328  and  _330
REMARK  137  A    between atoms: _330  and  _331
REMARK  138  A    between atoms: _330  and  _333
REMARK  139  A    between atoms: _333  and  _334
REMARK  140  A    between atoms: _337  and  _339
REMARK  141  A    between atoms: _339  and  _340
REMARK  142  A    between atoms: _339  and  _342
REMARK  143  A    between atoms: _342  and  _343
REMARK  144  A    between atoms: _346  and  _348
REMARK  145  A    between atoms: _348  and  _349
REMARK  146  A    between atoms: _348  and  _351
REMARK  147  A    between atoms: _351  and  _352
REMARK  148  A    between atoms: _355  and  _357
REMARK  149  A    between atoms: _357  and  _358
REMARK  150  A    between atoms: _357  and  _360
REMARK  151  A    between atoms: _363  and  _365
REMARK  152  A    between atoms: _365  and  _366
REMARK  153  A    between atoms: _365  and  _368
REMARK  154  A    between atoms: _368  and  _369
REMARK  155  A    between atoms: _369  and  _370
REMARK  156  A    between atoms: _370  and  _371
REMARK  157  A    between atoms: _371  and  _372
REMARK  158  A    between atoms: _376  and  _378
REMARK  159  A    between atoms: _378  and  _379
REMARK  160  A    between atoms: _378  and  _381
REMARK  161  A    between atoms: _381  and  _382
REMARK  162  A    between atoms: _385  and  _387
REMARK  163  A    between atoms: _387  and  _388
REMARK  164  A    between atoms: _390  and  _392
REMARK  165  A    between atoms: _392  and  _393
REMARK  166  A    between atoms: _395  and  _397
REMARK  167  A    between atoms: _397  and  _398
REMARK  168  A    between atoms: _397  and  _400
REMARK  169  A    between atoms: _400  and  _401
REMARK  170  A    between atoms: _404  and  _406
REMARK  171  A    between atoms: _406  and  _407
REMARK  172  A    between atoms: _409  and  _411
REMARK  173  A    between atoms: _411  and  _412
REMARK  174  A    between atoms: _414  and  _416
REMARK  175  A    between atoms: _416  and  _417
REMARK  176  A    between atoms: _416  and  _419
REMARK  177  A    between atoms: _419  and  _420
REMARK  178  A    between atoms: _423  and  _425
REMARK  179  A    between atoms: _425  and  _426
REMARK  180  A    between atoms: _425  and  _428
REMARK  181  A    between atoms: _428  and  _429
REMARK  182  A    between atoms: _433  and  _434
REMARK  183  A    between atoms: _439  and  _441
REMARK  184  A    between atoms: _441  and  _442
REMARK  185  A    between atoms: _441  and  _444
REMARK  186  A    between atoms: _444  and  _445
REMARK  187  A    between atoms: _449  and  _450
REMARK  188  A    between atoms: _455  and  _457
REMARK  189  A    between atoms: _457  and  _458
REMARK  190  A    between atoms: _457  and  _460
REMARK  191  A    between atoms: _463  and  _465
REMARK  192  A    between atoms: _465  and  _466
REMARK  193  A    between atoms: _465  and  _468
REMARK  194  A    between atoms: _468  and  _469
REMARK  195  A    between atoms: _474  and  _476
REMARK  196  A    between atoms: _476  and  _477
REMARK  197  A    between atoms: _476  and  _479
REMARK  198  A    between atoms: _479  and  _480
REMARK  199  A    between atoms: _483  and  _485
REMARK  200  A    between atoms: _485  and  _486
REMARK  201  A    between atoms: _485  and  _488
REMARK  202  A    between atoms: _488  and  _489
REMARK  203  A    between atoms: _492  and  _494
REMARK  204  A    between atoms: _494  and  _495
REMARK  205  A    between atoms: _497  and  _499
REMARK  206  A    between atoms: _499  and  _500
REMARK  207  A    between atoms: _499  and  _502
REMARK  208  A    between atoms: _502  and  _503
REMARK  209  A    between atoms: _503  and  _504
REMARK  210  A    between atoms: _504  and  _505
REMARK  211  A    between atoms: _514  and  _516
REMARK  212  A    between atoms: _516  and  _517
REMARK  213  A    between atoms: _516  and  _519
REMARK  214  A    between atoms: _519  and  _520
REMARK                            x       y       z     vdW  Elec       q    Type
REMARK                         _______ _______ _______ _____ _____    ______ ____
ROOT
ATOM      1  O   HOH     1       8.009  13.804   8.675  0.00  0.00    +0.000 OA
ENDROOT
TORSDOF 0
REMARK  Name = ../refined-set-2016/1hpv/1hpv_pocket.pdb
REMARK  214 active torsions:
REMARK  status: ('A' for Active; 'I' for Inactive)
REMARK    1  A    between atoms: _1  and  _3
REMARK    2  A    between atoms: _3  and  _4
REMARK    3  A    between atoms: _3  and  _6
REMARK    4  A    between atoms: _6  and  _7
REMARK    5  A    between atoms: _7  and  _8
REMARK    6  A    between atoms: _8  and  _9
REMARK    7  A    between atoms: _18  and  _20
REMARK    8  A    between atoms: _20  and  _21
REMARK    9  A    between atoms: _20  and  _23
REMARK   10  A    between atoms: _23  and  _24
REMARK   11  A    between atoms: _27  and  _29
REMARK   12  A    between atoms: _29  and  _30
REMARK   13  A    between atoms: _29  and  _32
REMARK   14  A    between atoms: _32  and  _33
REMARK   15  A    between atoms: _36  and  _38
REMARK   16  A    between atoms: _38  and  _39
REMARK   17  A    between atoms: _38  and  _41
REMARK   18  A    between atoms: _41  and  _42
REMARK   19  A    between atoms: _45  and  _47
REMARK   20  A    between atoms: _47  and  _48
REMARK   21  A    between atoms: _47  and  _50
REMARK   22  A    between atoms: _50  and  _51
REMARK   23  A    between atoms: _54  and  _56
REMARK   24  A    between atoms: _56  and  _57
REMARK   25  A    between atoms: _59  and  _61
REMARK   26  A    between atoms: _61  and  _62
REMARK   27  A    between atoms: _65  and  _67
REMARK   28  A    between atoms: _67  and  _68
REMARK   29  A    between atoms: _67  and  _70
REMARK   30  A    between atoms: _70  and  _71
REMARK   31  A    between atoms: _74  and  _76
REMARK   32  A    between atoms: _76  and  _77
REMARK   33  A    between atoms: _76  and  _79
REMARK   34  A    between atoms: _79  and  _80
REMARK   35  A    between atoms: _83  and  _85
REMARK   36  A    between atoms: _85  and  _86
REMARK   37  A    between atoms: _85  and  _88
REMARK   38  A    between atoms: _88  and  _89
REMARK   39  A    between atoms: _92  and  _94
REMARK   40  A    between atoms: _94  and  _95
REMARK   41  A    between atoms: _94  and  _97
REMARK   42  A    between atoms: _100  and  _102
REMARK   43  A    between atoms: _102  and  _103
REMARK   44  A    between atoms: _102  and  _105
REMARK   45  A    between atoms: _105  and  _106
REMARK   46  A    between atoms: _106  and  _107
REMARK   47  A    between atoms: _107  and  _108
REMARK   48  A    between atoms: _108  and  _109
REMARK   49  A    between atoms: _113  and  _115
REMARK   50  A    between atoms: _115  and  _116
REMARK   51  A    between atoms: _115  and  _118
REMARK   52  A    between atoms: _118  and  _119
REMARK   53  A    between atoms: _119  and  _120
REMARK   54  A    between atoms: _122  and  _124
REMARK   55  A    between atoms: _124  and  _125
REMARK   56  A    between atoms: _124  and  _127
REMARK   57  A    between atoms: _127  and  _128
REMARK   58  A    between atoms: _131  and  _133
REMARK   59  A    between atoms: _133  and  _134
REMARK   60  A    between atoms: _136  and  _138
REMARK   61  A    between atoms: _138  and  _139
REMARK   62  A    between atoms: _141  and  _143
REMARK   63  A    between atoms: _143  and  _144
REMARK   64  A    between atoms: _143  and  _146
REMARK   65  A    between atoms: _146  and  _147
REMARK   66  A    between atoms: _150  and  _152
REMARK   67  A    between atoms: _152  and  _153
REMARK   68  A    between atoms: _155  and  _157
REMARK   69  A    between atoms: _157  and  _158
REMARK   70  A    between atoms: _160  and  _162
REMARK   71  A    between atoms: _162  and  _163
REMARK   72  A    between atoms: _162  and  _165
REMARK   73  A    between atoms: _165  and  _166
REMARK   74  A    between atoms: _169  and  _171
REMARK   75  A    between atoms: _171  and  _172
REMARK   76  A    between atoms: _171  and  _174
REMARK   77  A    between atoms: _174  and  _175
REMARK   78  A    between atoms: _178  and  _180
REMARK   79  A    between atoms: _180  and  _181
REMARK   80  A    between atoms: _180  and  _183
REMARK   81  A    between atoms: _183  and  _184
REMARK   82  A    between atoms: _188  and  _189
REMARK   83  A    between atoms: _194  and  _196
REMARK   84  A    between atoms: _196  and  _197
REMARK   85  A    between atoms: _196  and  _199
REMARK   86  A    between atoms: _202  and  _204
REMARK   87  A    between atoms: _204  and  _205
REMARK   88  A    between atoms: _204  and  _207
REMARK   89  A    between atoms: _207  and  _208
REMARK   90  A    between atoms: _213  and  _215
REMARK   91  A    between atoms: _215  and  _216
REMARK   92  A    between atoms: _215  and  _218
REMARK   93  A    between atoms: _218  and  _219
REMARK   94  A    between atoms: _222  and  _224
REMARK   95  A    between atoms: _224  and  _225
REMARK   96  A    between atoms: _224  and  _227
REMARK   97  A    between atoms: _227  and  _228
REMARK   98  A    between atoms: _231  and  _233
REMARK   99  A    between atoms: _233  and  _234
REMARK  100  A    between atoms: _236  and  _238
REMARK  101  A    between atoms: _238  and  _239
REMARK  102  A    between atoms: _238  and  _241
REMARK  103  A    between atoms: _241  and  _242
REMARK  104  A    between atoms: _242  and  _243
REMARK  105  A    between atoms: _243  and  _244
REMARK  106  A    between atoms: _253  and  _255
REMARK  107  A    between atoms: _255  and  _256
REMARK  108  A    between atoms: _255  and  _258
REMARK  109  A    between atoms: _258  and  _259
REMARK  110  A    between atoms: _264  and  _266
REMARK  111  A    between atoms: _266  and  _267
REMARK  112  A    between atoms: _266  and  _269
REMARK  113  A    between atoms: _269  and  _270
REMARK  114  A    between atoms: _270  and  _271
REMARK  115  A    between atoms: _271  and  _272
REMARK  116  A    between atoms: _281  and  _283
REMARK  117  A    between atoms: _283  and  _284
REMARK  118  A    between atoms: _283  and  _286
REMARK  119  A    between atoms: _286  and  _287
REMARK  120  A    between atoms: _290  and  _292
REMARK  121  A    between atoms: _292  and  _293
REMARK  122  A    between atoms: _292  and  _295
REMARK  123  A    between atoms: _295  and  _296
REMARK  124  A    between atoms: _299  and  _301
REMARK  125  A    between atoms: _301  and  _302
REMARK  126  A    between atoms: _301  and  _304
REMARK  127  A    between atoms: _304  and  _305
REMARK  128  A    between atoms: _308  and  _310
REMARK  129  A    between atoms: _310  and  _311
REMARK  130  A    between atoms: _310  and  _313
REMARK  131  A    between atoms: _313  and  _314
REMARK  132  A    between atoms: _317  and  _319
REMARK  133  A    between atoms: _319  and  _320
REMARK  134  A    between atoms: _322  and  _324
REMARK  135  A    between atoms: _324  and  _325
REMARK  136  A    between atoms: _328  and  _330
REMARK  137  A    between atoms: _330  and  _331
REMARK  138  A    between atoms: _330  and  _333
REMARK  139  A    between atoms: _333  and  _334
REMARK  140  A    between atoms: _337  and  _339
REMARK  141  A    between atoms: _339  and  _340
REMARK  142  A    between atoms: _339  and  _342
REMARK  143  A    between atoms: _342  and  _343
REMARK  144  A    between atoms: _346  and  _348
REMARK  145  A    between atoms: _348  and  _349
REMARK  146  A    between atoms: _348  and  _351
REMARK  147  A    between atoms: _351  and  _352
REMARK  148  A    between atoms: _355  and  _357
REMARK  149  A    between atoms: _357  and  _358
REMARK  150  A    between atoms: _357  and  _360
REMARK  151  A    between atoms: _363  and  _365
REMARK  152  A    between atoms: _365  and  _366
REMARK  153  A    between atoms: _365  and  _368
REMARK  154  A    between atoms: _368  and  _369
REMARK  155  A    between atoms: _369  and  _370
REMARK  156  A    between atoms: _370  and  _371
REMARK  157  A    between atoms: _371  and  _372
REMARK  158  A    between atoms: _376  and  _378
REMARK  159  A    between atoms: _378  and  _379
REMARK  160  A    between atoms: _378  and  _381
REMARK  161  A    between atoms: _381  and  _382
REMARK  162  A    between atoms: _385  and  _387
REMARK  163  A    between atoms: _387  and  _388
REMARK  164  A    between atoms: _390  and  _392
REMARK  165  A    between atoms: _392  and  _393
REMARK  166  A    between atoms: _395  and  _397
REMARK  167  A    between atoms: _397  and  _398
REMARK  168  A    between atoms: _397  and  _400
REMARK  169  A    between atoms: _400  and  _401
REMARK  170  A    between atoms: _404  and  _406
REMARK  171  A    between atoms: _406  and  _407
REMARK  172  A    between atoms: _409  and  _411
REMARK  173  A    between atoms: _411  and  _412
REMARK  174  A    between atoms: _414  and  _416
REMARK  175  A    between atoms: _416  and  _417
REMARK  176  A    between atoms: _416  and  _419
REMARK  177  A    between atoms: _419  and  _420
REMARK  178  A    between atoms: _423  and  _425
REMARK  179  A    between atoms: _425  and  _426
REMARK  180  A    between atoms: _425  and  _428
REMARK  181  A    between atoms: _428  and  _429
REMARK  182  A    between atoms: _433  and  _434
REMARK  183  A    between atoms: _439  and  _441
REMARK  184  A    between atoms: _441  and  _442
REMARK  185  A    between atoms: _441  and  _444
REMARK  186  A    between atoms: _444  and  _445
REMARK  187  A    between atoms: _449  and  _450
REMARK  188  A    between atoms: _455  and  _457
REMARK  189  A    between atoms: _457  and  _458
REMARK  190  A    between atoms: _457  and  _460
REMARK  191  A    between atoms: _463  and  _465
REMARK  192  A    between atoms: _465  and  _466
REMARK  193  A    between atoms: _465  and  _468
REMARK  194  A    between atoms: _468  and  _469
REMARK  195  A    between atoms: _474  and  _476
REMARK  196  A    between atoms: _476  and  _477
REMARK  197  A    between atoms: _476  and  _479
REMARK  198  A    between atoms: _479  and  _480
REMARK  199  A    between atoms: _483  and  _485
REMARK  200  A    between atoms: _485  and  _486
REMARK  201  A    between atoms: _485  and  _488
REMARK  202  A    between atoms: _488  and  _489
REMARK  203  A    between atoms: _492  and  _494
REMARK  204  A    between atoms: _494  and  _495
REMARK  205  A    between atoms: _497  and  _499
REMARK  206  A    between atoms: _499  and  _500
REMARK  207  A    between atoms: _499  and  _502
REMARK  208  A    between atoms: _502  and  _503
REMARK  209  A    between atoms: _503  and  _504
REMARK  210  A    between atoms: _504  and  _505
REMARK  211  A    between atoms: _514  and  _516
REMARK  212  A    between atoms: _516  and  _517
REMARK  213  A    between atoms: _516  and  _519
REMARK  214  A    between atoms: _519  and  _520
REMARK                            x       y       z     vdW  Elec       q    Type
REMARK                         _______ _______ _______ _____ _____    ______ ____
ROOT
ATOM      1  O   HOH     1       8.905  19.797  -4.202  0.00  0.00    +0.000 OA
ENDROOT
TORSDOF 0
REMARK  Name = ../refined-set-2016/1hpv/1hpv_pocket.pdb
REMARK  214 active torsions:
REMARK  status: ('A' for Active; 'I' for Inactive)
REMARK    1  A    between atoms: _1  and  _3
REMARK    2  A    between atoms: _3  and  _4
REMARK    3  A    between atoms: _3  and  _6
REMARK    4  A    between atoms: _6  and  _7
REMARK    5  A    between atoms: _7  and  _8
REMARK    6  A    between atoms: _8  and  _9
REMARK    7  A    between atoms: _18  and  _20
REMARK    8  A    between atoms: _20  and  _21
REMARK    9  A    between atoms: _20  and  _23
REMARK   10  A    between atoms: _23  and  _24
REMARK   11  A    between atoms: _27  and  _29
REMARK   12  A    between atoms: _29  and  _30
REMARK   13  A    between atoms: _29  and  _32
REMARK   14  A    between atoms: _32  and  _33
REMARK   15  A    between atoms: _36  and  _38
REMARK   16  A    between atoms: _38  and  _39
REMARK   17  A    between atoms: _38  and  _41
REMARK   18  A    between atoms: _41  and  _42
REMARK   19  A    between atoms: _45  and  _47
REMARK   20  A    between atoms: _47  and  _48
REMARK   21  A    between atoms: _47  and  _50
REMARK   22  A    between atoms: _50  and  _51
REMARK   23  A    between atoms: _54  and  _56
REMARK   24  A    between atoms: _56  and  _57
REMARK   25  A    between atoms: _59  and  _61
REMARK   26  A    between atoms: _61  and  _62
REMARK   27  A    between atoms: _65  and  _67
REMARK   28  A    between atoms: _67  and  _68
REMARK   29  A    between atoms: _67  and  _70
REMARK   30  A    between atoms: _70  and  _71
REMARK   31  A    between atoms: _74  and  _76
REMARK   32  A    between atoms: _76  and  _77
REMARK   33  A    between atoms: _76  and  _79
REMARK   34  A    between atoms: _79  and  _80
REMARK   35  A    between atoms: _83  and  _85
REMARK   36  A    between atoms: _85  and  _86
REMARK   37  A    between atoms: _85  and  _88
REMARK   38  A    between atoms: _88  and  _89
REMARK   39  A    between atoms: _92  and  _94
REMARK   40  A    between atoms: _94  and  _95
REMARK   41  A    between atoms: _94  and  _97
REMARK   42  A    between atoms: _100  and  _102
REMARK   43  A    between atoms: _102  and  _103
REMARK   44  A    between atoms: _102  and  _105
REMARK   45  A    between atoms: _105  and  _106
REMARK   46  A    between atoms: _106  and  _107
REMARK   47  A    between atoms: _107  and  _108
REMARK   48  A    between atoms: _108  and  _109
REMARK   49  A    between atoms: _113  and  _115
REMARK   50  A    between atoms: _115  and  _116
REMARK   51  A    between atoms: _115  and  _118
REMARK   52  A    between atoms: _118  and  _119
REMARK   53  A    between atoms: _119  and  _120
REMARK   54  A    between atoms: _122  and  _124
REMARK   55  A    between atoms: _124  and  _125
REMARK   56  A    between atoms: _124  and  _127
REMARK   57  A    between atoms: _127  and  _128
REMARK   58  A    between atoms: _131  and  _133
REMARK   59  A    between atoms: _133  and  _134
REMARK   60  A    between atoms: _136  and  _138
REMARK   61  A    between atoms: _138  and  _139
REMARK   62  A    between atoms: _141  and  _143
REMARK   63  A    between atoms: _143  and  _144
REMARK   64  A    between atoms: _143  and  _146
REMARK   65  A    between atoms: _146  and  _147
REMARK   66  A    between atoms: _150  and  _152
REMARK   67  A    between atoms: _152  and  _153
REMARK   68  A    between atoms: _155  and  _157
REMARK   69  A    between atoms: _157  and  _158
REMARK   70  A    between atoms: _160  and  _162
REMARK   71  A    between atoms: _162  and  _163
REMARK   72  A    between atoms: _162  and  _165
REMARK   73  A    between atoms: _165  and  _166
REMARK   74  A    between atoms: _169  and  _171
REMARK   75  A    between atoms: _171  and  _172
REMARK   76  A    between atoms: _171  and  _174
REMARK   77  A    between atoms: _174  and  _175
REMARK   78  A    between atoms: _178  and  _180
REMARK   79  A    between atoms: _180  and  _181
REMARK   80  A    between atoms: _180  and  _183
REMARK   81  A    between atoms: _183  and  _184
REMARK   82  A    between atoms: _188  and  _189
REMARK   83  A    between atoms: _194  and  _196
REMARK   84  A    between atoms: _196  and  _197
REMARK   85  A    between atoms: _196  and  _199
REMARK   86  A    between atoms: _202  and  _204
REMARK   87  A    between atoms: _204  and  _205
REMARK   88  A    between atoms: _204  and  _207
REMARK   89  A    between atoms: _207  and  _208
REMARK   90  A    between atoms: _213  and  _215
REMARK   91  A    between atoms: _215  and  _216
REMARK   92  A    between atoms: _215  and  _218
REMARK   93  A    between atoms: _218  and  _219
REMARK   94  A    between atoms: _222  and  _224
REMARK   95  A    between atoms: _224  and  _225
REMARK   96  A    between atoms: _224  and  _227
REMARK   97  A    between atoms: _227  and  _228
REMARK   98  A    between atoms: _231  and  _233
REMARK   99  A    between atoms: _233  and  _234
REMARK  100  A    between atoms: _236  and  _238
REMARK  101  A    between atoms: _238  and  _239
REMARK  102  A    between atoms: _238  and  _241
REMARK  103  A    between atoms: _241  and  _242
REMARK  104  A    between atoms: _242  and  _243
REMARK  105  A    between atoms: _243  and  _244
REMARK  106  A    between atoms: _253  and  _255
REMARK  107  A    between atoms: _255  and  _256
REMARK  108  A    between atoms: _255  and  _258
REMARK  109  A    between atoms: _258  and  _259
REMARK  110  A    between atoms: _264  and  _266
REMARK  111  A    between atoms: _266  and  _267
REMARK  112  A    between atoms: _266  and  _269
REMARK  113  A    between atoms: _269  and  _270
REMARK  114  A    between atoms: _270  and  _271
REMARK  115  A    between atoms: _271  and  _272
REMARK  116  A    between atoms: _281  and  _283
REMARK  117  A    between atoms: _283  and  _284
REMARK  118  A    between atoms: _283  and  _286
REMARK  119  A    between atoms: _286  and  _287
REMARK  120  A    between atoms: _290  and  _292
REMARK  121  A    between atoms: _292  and  _293
REMARK  122  A    between atoms: _292  and  _295
REMARK  123  A    between atoms: _295  and  _296
REMARK  124  A    between atoms: _299  and  _301
REMARK  125  A    between atoms: _301  and  _302
REMARK  126  A    between atoms: _301  and  _304
REMARK  127  A    between atoms: _304  and  _305
REMARK  128  A    between atoms: _308  and  _310
REMARK  129  A    between atoms: _310  and  _311
REMARK  130  A    between atoms: _310  and  _313
REMARK  131  A    between atoms: _313  and  _314
REMARK  132  A    between atoms: _317  and  _319
REMARK  133  A    between atoms: _319  and  _320
REMARK  134  A    between atoms: _322  and  _324
REMARK  135  A    between atoms: _324  and  _325
REMARK  136  A    between atoms: _328  and  _330
REMARK  137  A    between atoms: _330  and  _331
REMARK  138  A    between atoms: _330  and  _333
REMARK  139  A    between atoms: _333  and  _334
REMARK  140  A    between atoms: _337  and  _339
REMARK  141  A    between atoms: _339  and  _340
REMARK  142  A    between atoms: _339  and  _342
REMARK  143  A    between atoms: _342  and  _343
REMARK  144  A    between atoms: _346  and  _348
REMARK  145  A    between atoms: _348  and  _349
REMARK  146  A    between atoms: _348  and  _351
REMARK  147  A    between atoms: _351  and  _352
REMARK  148  A    between atoms: _355  and  _357
REMARK  149  A    between atoms: _357  and  _358
REMARK  150  A    between atoms: _357  and  _360
REMARK  151  A    between atoms: _363  and  _365
REMARK  152  A    between atoms: _365  and  _366
REMARK  153  A    between atoms: _365  and  _368
REMARK  154  A    between atoms: _368  and  _369
REMARK  155  A    between atoms: _369  and  _370
REMARK  156  A    between atoms: _370  and  _371
REMARK  157  A    between atoms: _371  and  _372
REMARK  158  A    between atoms: _376  and  _378
REMARK  159  A    between atoms: _378  and  _379
REMARK  160  A    between atoms: _378  and  _381
REMARK  161  A    between atoms: _381  and  _382
REMARK  162  A    between atoms: _385  and  _387
REMARK  163  A    between atoms: _387  and  _388
REMARK  164  A    between atoms: _390  and  _392
REMARK  165  A    between atoms: _392  and  _393
REMARK  166  A    between atoms: _395  and  _397
REMARK  167  A    between atoms: _397  and  _398
REMARK  168  A    between atoms: _397  and  _400
REMARK  169  A    between atoms: _400  and  _401
REMARK  170  A    between atoms: _404  and  _406
REMARK  171  A    between atoms: _406  and  _407
REMARK  172  A    between atoms: _409  and  _411
REMARK  173  A    between atoms: _411  and  _412
REMARK  174  A    between atoms: _414  and  _416
REMARK  175  A    between atoms: _416  and  _417
REMARK  176  A    between atoms: _416  and  _419
REMARK  177  A    between atoms: _419  and  _420
REMARK  178  A    between atoms: _423  and  _425
REMARK  179  A    between atoms: _425  and  _426
REMARK  180  A    between atoms: _425  and  _428
REMARK  181  A    between atoms: _428  and  _429
REMARK  182  A    between atoms: _433  and  _434
REMARK  183  A    between atoms: _439  and  _441
REMARK  184  A    between atoms: _441  and  _442
REMARK  185  A    between atoms: _441  and  _444
REMARK  186  A    between atoms: _444  and  _445
REMARK  187  A    between atoms: _449  and  _450
REMARK  188  A    between atoms: _455  and  _457
REMARK  189  A    between atoms: _457  and  _458
REMARK  190  A    between atoms: _457  and  _460
REMARK  191  A    between atoms: _463  and  _465
REMARK  192  A    between atoms: _465  and  _466
REMARK  193  A    between atoms: _465  and  _468
REMARK  194  A    between atoms: _468  and  _469
REMARK  195  A    between atoms: _474  and  _476
REMARK  196  A    between atoms: _476  and  _477
REMARK  197  A    between atoms: _476  and  _479
REMARK  198  A    between atoms: _479  and  _480
REMARK  199  A    between atoms: _483  and  _485
REMARK  200  A    between atoms: _485  and  _486
REMARK  201  A    between atoms: _485  and  _488
REMARK  202  A    between atoms: _488  and  _489
REMARK  203  A    between atoms: _492  and  _494
REMARK  204  A    between atoms: _494  and  _495
REMARK  205  A    between atoms: _497  and  _499
REMARK  206  A    between atoms: _499  and  _500
REMARK  207  A    between atoms: _499  and  _502
REMARK  208  A    between atoms: _502  and  _503
REMARK  209  A    between atoms: _503  and  _504
REMARK  210  A    between atoms: _504  and  _505
REMARK  211  A    between atoms: _514  and  _516
REMARK  212  A    between atoms: _516  and  _517
REMARK  213  A    between atoms: _516  and  _519
REMARK  214  A    between atoms: _519  and  _520
REMARK                            x       y       z     vdW  Elec       q    Type
REMARK                         _______ _______ _______ _____ _____    ______ ____
ROOT
ATOM      1  O   HOH     1      17.115  19.592   4.022  0.00  0.00    +0.000 OA
ENDROOT
TORSDOF 0
REMARK  Name = ../refined-set-2016/1hpv/1hpv_pocket.pdb
REMARK  214 active torsions:
REMARK  status: ('A' for Active; 'I' for Inactive)
REMARK    1  A    between atoms: _1  and  _3
REMARK    2  A    between atoms: _3  and  _4
REMARK    3  A    between atoms: _3  and  _6
REMARK    4  A    between atoms: _6  and  _7
REMARK    5  A    between atoms: _7  and  _8
REMARK    6  A    between atoms: _8  and  _9
REMARK    7  A    between atoms: _18  and  _20
REMARK    8  A    between atoms: _20  and  _21
REMARK    9  A    between atoms: _20  and  _23
REMARK   10  A    between atoms: _23  and  _24
REMARK   11  A    between atoms: _27  and  _29
REMARK   12  A    between atoms: _29  and  _30
REMARK   13  A    between atoms: _29  and  _32
REMARK   14  A    between atoms: _32  and  _33
REMARK   15  A    between atoms: _36  and  _38
REMARK   16  A    between atoms: _38  and  _39
REMARK   17  A    between atoms: _38  and  _41
REMARK   18  A    between atoms: _41  and  _42
REMARK   19  A    between atoms: _45  and  _47
REMARK   20  A    between atoms: _47  and  _48
REMARK   21  A    between atoms: _47  and  _50
REMARK   22  A    between atoms: _50  and  _51
REMARK   23  A    between atoms: _54  and  _56
REMARK   24  A    between atoms: _56  and  _57
REMARK   25  A    between atoms: _59  and  _61
REMARK   26  A    between atoms: _61  and  _62
REMARK   27  A    between atoms: _65  and  _67
REMARK   28  A    between atoms: _67  and  _68
REMARK   29  A    between atoms: _67  and  _70
REMARK   30  A    between atoms: _70  and  _71
REMARK   31  A    between atoms: _74  and  _76
REMARK   32  A    between atoms: _76  and  _77
REMARK   33  A    between atoms: _76  and  _79
REMARK   34  A    between atoms: _79  and  _80
REMARK   35  A    between atoms: _83  and  _85
REMARK   36  A    between atoms: _85  and  _86
REMARK   37  A    between atoms: _85  and  _88
REMARK   38  A    between atoms: _88  and  _89
REMARK   39  A    between atoms: _92  and  _94
REMARK   40  A    between atoms: _94  and  _95
REMARK   41  A    between atoms: _94  and  _97
REMARK   42  A    between atoms: _100  and  _102
REMARK   43  A    between atoms: _102  and  _103
REMARK   44  A    between atoms: _102  and  _105
REMARK   45  A    between atoms: _105  and  _106
REMARK   46  A    between atoms: _106  and  _107
REMARK   47  A    between atoms: _107  and  _108
REMARK   48  A    between atoms: _108  and  _109
REMARK   49  A    between atoms: _113  and  _115
REMARK   50  A    between atoms: _115  and  _116
REMARK   51  A    between atoms: _115  and  _118
REMARK   52  A    between atoms: _118  and  _119
REMARK   53  A    between atoms: _119  and  _120
REMARK   54  A    between atoms: _122  and  _124
REMARK   55  A    between atoms: _124  and  _125
REMARK   56  A    between atoms: _124  and  _127
REMARK   57  A    between atoms: _127  and  _128
REMARK   58  A    between atoms: _131  and  _133
REMARK   59  A    between atoms: _133  and  _134
REMARK   60  A    between atoms: _136  and  _138
REMARK   61  A    between atoms: _138  and  _139
REMARK   62  A    between atoms: _141  and  _143
REMARK   63  A    between atoms: _143  and  _144
REMARK   64  A    between atoms: _143  and  _146
REMARK   65  A    between atoms: _146  and  _147
REMARK   66  A    between atoms: _150  and  _152
REMARK   67  A    between atoms: _152  and  _153
REMARK   68  A    between atoms: _155  and  _157
REMARK   69  A    between atoms: _157  and  _158
REMARK   70  A    between atoms: _160  and  _162
REMARK   71  A    between atoms: _162  and  _163
REMARK   72  A    between atoms: _162  and  _165
REMARK   73  A    between atoms: _165  and  _166
REMARK   74  A    between atoms: _169  and  _171
REMARK   75  A    between atoms: _171  and  _172
REMARK   76  A    between atoms: _171  and  _174
REMARK   77  A    between atoms: _174  and  _175
REMARK   78  A    between atoms: _178  and  _180
REMARK   79  A    between atoms: _180  and  _181
REMARK   80  A    between atoms: _180  and  _183
REMARK   81  A    between atoms: _183  and  _184
REMARK   82  A    between atoms: _188  and  _189
REMARK   83  A    between atoms: _194  and  _196
REMARK   84  A    between atoms: _196  and  _197
REMARK   85  A    between atoms: _196  and  _199
REMARK   86  A    between atoms: _202  and  _204
REMARK   87  A    between atoms: _204  and  _205
REMARK   88  A    between atoms: _204  and  _207
REMARK   89  A    between atoms: _207  and  _208
REMARK   90  A    between atoms: _213  and  _215
REMARK   91  A    between atoms: _215  and  _216
REMARK   92  A    between atoms: _215  and  _218
REMARK   93  A    between atoms: _218  and  _219
REMARK   94  A    between atoms: _222  and  _224
REMARK   95  A    between atoms: _224  and  _225
REMARK   96  A    between atoms: _224  and  _227
REMARK   97  A    between atoms: _227  and  _228
REMARK   98  A    between atoms: _231  and  _233
REMARK   99  A    between atoms: _233  and  _234
REMARK  100  A    between atoms: _236  and  _238
REMARK  101  A    between atoms: _238  and  _239
REMARK  102  A    between atoms: _238  and  _241
REMARK  103  A    between atoms: _241  and  _242
REMARK  104  A    between atoms: _242  and  _243
REMARK  105  A    between atoms: _243  and  _244
REMARK  106  A    between atoms: _253  and  _255
REMARK  107  A    between atoms: _255  and  _256
REMARK  108  A    between atoms: _255  and  _258
REMARK  109  A    between atoms: _258  and  _259
REMARK  110  A    between atoms: _264  and  _266
REMARK  111  A    between atoms: _266  and  _267
REMARK  112  A    between atoms: _266  and  _269
REMARK  113  A    between atoms: _269  and  _270
REMARK  114  A    between atoms: _270  and  _271
REMARK  115  A    between atoms: _271  and  _272
REMARK  116  A    between atoms: _281  and  _283
REMARK  117  A    between atoms: _283  and  _284
REMARK  118  A    between atoms: _283  and  _286
REMARK  119  A    between atoms: _286  and  _287
REMARK  120  A    between atoms: _290  and  _292
REMARK  121  A    between atoms: _292  and  _293
REMARK  122  A    between atoms: _292  and  _295
REMARK  123  A    between atoms: _295  and  _296
REMARK  124  A    between atoms: _299  and  _301
REMARK  125  A    between atoms: _301  and  _302
REMARK  126  A    between atoms: _301  and  _304
REMARK  127  A    between atoms: _304  and  _305
REMARK  128  A    between atoms: _308  and  _310
REMARK  129  A    between atoms: _310  and  _311
REMARK  130  A    between atoms: _310  and  _313
REMARK  131  A    between atoms: _313  and  _314
REMARK  132  A    between atoms: _317  and  _319
REMARK  133  A    between atoms: _319  and  _320
REMARK  134  A    between atoms: _322  and  _324
REMARK  135  A    between atoms: _324  and  _325
REMARK  136  A    between atoms: _328  and  _330
REMARK  137  A    between atoms: _330  and  _331
REMARK  138  A    between atoms: _330  and  _333
REMARK  139  A    between atoms: _333  and  _334
REMARK  140  A    between atoms: _337  and  _339
REMARK  141  A    between atoms: _339  and  _340
REMARK  142  A    between atoms: _339  and  _342
REMARK  143  A    between atoms: _342  and  _343
REMARK  144  A    between atoms: _346  and  _348
REMARK  145  A    between atoms: _348  and  _349
REMARK  146  A    between atoms: _348  and  _351
REMARK  147  A    between atoms: _351  and  _352
REMARK  148  A    between atoms: _355  and  _357
REMARK  149  A    between atoms: _357  and  _358
REMARK  150  A    between atoms: _357  and  _360
REMARK  151  A    between atoms: _363  and  _365
REMARK  152  A    between atoms: _365  and  _366
REMARK  153  A    between atoms: _365  and  _368
REMARK  154  A    between atoms: _368  and  _369
REMARK  155  A    between atoms: _369  and  _370
REMARK  156  A    between atoms: _370  and  _371
REMARK  157  A    between atoms: _371  and  _372
REMARK  158  A    between atoms: _376  and  _378
REMARK  159  A    between atoms: _378  and  _379
REMARK  160  A    between atoms: _378  and  _381
REMARK  161  A    between atoms: _381  and  _382
REMARK  162  A    between atoms: _385  and  _387
REMARK  163  A    between atoms: _387  and  _388
REMARK  164  A    between atoms: _390  and  _392
REMARK  165  A    between atoms: _392  and  _393
REMARK  166  A    between atoms: _395  and  _397
REMARK  167  A    between atoms: _397  and  _398
REMARK  168  A    between atoms: _397  and  _400
REMARK  169  A    between atoms: _400  and  _401
REMARK  170  A    between atoms: _404  and  _406
REMARK  171  A    between atoms: _406  and  _407
REMARK  172  A    between atoms: _409  and  _411
REMARK  173  A    between atoms: _411  and  _412
REMARK  174  A    between atoms: _414  and  _416
REMARK  175  A    between atoms: _416  and  _417
REMARK  176  A    between atoms: _416  and  _419
REMARK  177  A    between atoms: _419  and  _420
REMARK  178  A    between atoms: _423  and  _425
REMARK  179  A    between atoms: _425  and  _426
REMARK  180  A    between atoms: _425  and  _428
REMARK  181  A    between atoms: _428  and  _429
REMARK  182  A    between atoms: _433  and  _434
REMARK  183  A    between atoms: _439  and  _441
REMARK  184  A    between atoms: _441  and  _442
REMARK  185  A    between atoms: _441  and  _444
REMARK  186  A    between atoms: _444  and  _445
REMARK  187  A    between atoms: _449  and  _450
REMARK  188  A    between atoms: _455  and  _457
REMARK  189  A    between atoms: _457  and  _458
REMARK  190  A    between atoms: _457  and  _460
REMARK  191  A    between atoms: _463  and  _465
REMARK  192  A    between atoms: _465  and  _466
REMARK  193  A    between atoms: _465  and  _468
REMARK  194  A    between atoms: _468  and  _469
REMARK  195  A    between atoms: _474  and  _476
REMARK  196  A    between atoms: _476  and  _477
REMARK  197  A    between atoms: _476  and  _479
REMARK  198  A    between atoms: _479  and  _480
REMARK  199  A    between atoms: _483  and  _485
REMARK  200  A    between atoms: _485  and  _486
REMARK  201  A    between atoms: _485  and  _488
REMARK  202  A    between atoms: _488  and  _489
REMARK  203  A    between atoms: _492  and  _494
REMARK  204  A    between atoms: _494  and  _495
REMARK  205  A    between atoms: _497  and  _499
REMARK  206  A    between atoms: _499  and  _500
REMARK  207  A    between atoms: _499  and  _502
REMARK  208  A    between atoms: _502  and  _503
REMARK  209  A    between atoms: _503  and  _504
REMARK  210  A    between atoms: _504  and  _505
REMARK  211  A    between atoms: _514  and  _516
REMARK  212  A    between atoms: _516  and  _517
REMARK  213  A    between atoms: _516  and  _519
REMARK  214  A    between atoms: _519  and  _520
REMARK                            x       y       z     vdW  Elec       q    Type
REMARK                         _______ _______ _______ _____ _____    ______ ____
ROOT
ATOM      1  O   HOH     1       1.439  25.503  11.580  0.00  0.00    +0.000 OA
ENDROOT
TORSDOF 0
REMARK  Name = ../refined-set-2016/1hpv/1hpv_pocket.pdb
REMARK  214 active torsions:
REMARK  status: ('A' for Active; 'I' for Inactive)
REMARK    1  A    between atoms: _1  and  _3
REMARK    2  A    between atoms: _3  and  _4
REMARK    3  A    between atoms: _3  and  _6
REMARK    4  A    between atoms: _6  and  _7
REMARK    5  A    between atoms: _7  and  _8
REMARK    6  A    between atoms: _8  and  _9
REMARK    7  A    between atoms: _18  and  _20
REMARK    8  A    between atoms: _20  and  _21
REMARK    9  A    between atoms: _20  and  _23
REMARK   10  A    between atoms: _23  and  _24
REMARK   11  A    between atoms: _27  and  _29
REMARK   12  A    between atoms: _29  and  _30
REMARK   13  A    between atoms: _29  and  _32
REMARK   14  A    between atoms: _32  and  _33
REMARK   15  A    between atoms: _36  and  _38
REMARK   16  A    between atoms: _38  and  _39
REMARK   17  A    between atoms: _38  and  _41
REMARK   18  A    between atoms: _41  and  _42
REMARK   19  A    between atoms: _45  and  _47
REMARK   20  A    between atoms: _47  and  _48
REMARK   21  A    between atoms: _47  and  _50
REMARK   22  A    between atoms: _50  and  _51
REMARK   23  A    between atoms: _54  and  _56
REMARK   24  A    between atoms: _56  and  _57
REMARK   25  A    between atoms: _59  and  _61
REMARK   26  A    between atoms: _61  and  _62
REMARK   27  A    between atoms: _65  and  _67
REMARK   28  A    between atoms: _67  and  _68
REMARK   29  A    between atoms: _67  and  _70
REMARK   30  A    between atoms: _70  and  _71
REMARK   31  A    between atoms: _74  and  _76
REMARK   32  A    between atoms: _76  and  _77
REMARK   33  A    between atoms: _76  and  _79
REMARK   34  A    between atoms: _79  and  _80
REMARK   35  A    between atoms: _83  and  _85
REMARK   36  A    between atoms: _85  and  _86
REMARK   37  A    between atoms: _85  and  _88
REMARK   38  A    between atoms: _88  and  _89
REMARK   39  A    between atoms: _92  and  _94
REMARK   40  A    between atoms: _94  and  _95
REMARK   41  A    between atoms: _94  and  _97
REMARK   42  A    between atoms: _100  and  _102
REMARK   43  A    between atoms: _102  and  _103
REMARK   44  A    between atoms: _102  and  _105
REMARK   45  A    between atoms: _105  and  _106
REMARK   46  A    between atoms: _106  and  _107
REMARK   47  A    between atoms: _107  and  _108
REMARK   48  A    between atoms: _108  and  _109
REMARK   49  A    between atoms: _113  and  _115
REMARK   50  A    between atoms: _115  and  _116
REMARK   51  A    between atoms: _115  and  _118
REMARK   52  A    between atoms: _118  and  _119
REMARK   53  A    between atoms: _119  and  _120
REMARK   54  A    between atoms: _122  and  _124
REMARK   55  A    between atoms: _124  and  _125
REMARK   56  A    between atoms: _124  and  _127
REMARK   57  A    between atoms: _127  and  _128
REMARK   58  A    between atoms: _131  and  _133
REMARK   59  A    between atoms: _133  and  _134
REMARK   60  A    between atoms: _136  and  _138
REMARK   61  A    between atoms: _138  and  _139
REMARK   62  A    between atoms: _141  and  _143
REMARK   63  A    between atoms: _143  and  _144
REMARK   64  A    between atoms: _143  and  _146
REMARK   65  A    between atoms: _146  and  _147
REMARK   66  A    between atoms: _150  and  _152
REMARK   67  A    between atoms: _152  and  _153
REMARK   68  A    between atoms: _155  and  _157
REMARK   69  A    between atoms: _157  and  _158
REMARK   70  A    between atoms: _160  and  _162
REMARK   71  A    between atoms: _162  and  _163
REMARK   72  A    between atoms: _162  and  _165
REMARK   73  A    between atoms: _165  and  _166
REMARK   74  A    between atoms: _169  and  _171
REMARK   75  A    between atoms: _171  and  _172
REMARK   76  A    between atoms: _171  and  _174
REMARK   77  A    between atoms: _174  and  _175
REMARK   78  A    between atoms: _178  and  _180
REMARK   79  A    between atoms: _180  and  _181
REMARK   80  A    between atoms: _180  and  _183
REMARK   81  A    between atoms: _183  and  _184
REMARK   82  A    between atoms: _188  and  _189
REMARK   83  A    between atoms: _194  and  _196
REMARK   84  A    between atoms: _196  and  _197
REMARK   85  A    between atoms: _196  and  _199
REMARK   86  A    between atoms: _202  and  _204
REMARK   87  A    between atoms: _204  and  _205
REMARK   88  A    between atoms: _204  and  _207
REMARK   89  A    between atoms: _207  and  _208
REMARK   90  A    between atoms: _213  and  _215
REMARK   91  A    between atoms: _215  and  _216
REMARK   92  A    between atoms: _215  and  _218
REMARK   93  A    between atoms: _218  and  _219
REMARK   94  A    between atoms: _222  and  _224
REMARK   95  A    between atoms: _224  and  _225
REMARK   96  A    between atoms: _224  and  _227
REMARK   97  A    between atoms: _227  and  _228
REMARK   98  A    between atoms: _231  and  _233
REMARK   99  A    between atoms: _233  and  _234
REMARK  100  A    between atoms: _236  and  _238
REMARK  101  A    between atoms: _238  and  _239
REMARK  102  A    between atoms: _238  and  _241
REMARK  103  A    between atoms: _241  and  _242
REMARK  104  A    between atoms: _242  and  _243
REMARK  105  A    between atoms: _243  and  _244
REMARK  106  A    between atoms: _253  and  _255
REMARK  107  A    between atoms: _255  and  _256
REMARK  108  A    between atoms: _255  and  _258
REMARK  109  A    between atoms: _258  and  _259
REMARK  110  A    between atoms: _264  and  _266
REMARK  111  A    between atoms: _266  and  _267
REMARK  112  A    between atoms: _266  and  _269
REMARK  113  A    between atoms: _269  and  _270
REMARK  114  A    between atoms: _270  and  _271
REMARK  115  A    between atoms: _271  and  _272
REMARK  116  A    between atoms: _281  and  _283
REMARK  117  A    between atoms: _283  and  _284
REMARK  118  A    between atoms: _283  and  _286
REMARK  119  A    between atoms: _286  and  _287
REMARK  120  A    between atoms: _290  and  _292
REMARK  121  A    between atoms: _292  and  _293
REMARK  122  A    between atoms: _292  and  _295
REMARK  123  A    between atoms: _295  and  _296
REMARK  124  A    between atoms: _299  and  _301
REMARK  125  A    between atoms: _301  and  _302
REMARK  126  A    between atoms: _301  and  _304
REMARK  127  A    between atoms: _304  and  _305
REMARK  128  A    between atoms: _308  and  _310
REMARK  129  A    between atoms: _310  and  _311
REMARK  130  A    between atoms: _310  and  _313
REMARK  131  A    between atoms: _313  and  _314
REMARK  132  A    between atoms: _317  and  _319
REMARK  133  A    between atoms: _319  and  _320
REMARK  134  A    between atoms: _322  and  _324
REMARK  135  A    between atoms: _324  and  _325
REMARK  136  A    between atoms: _328  and  _330
REMARK  137  A    between atoms: _330  and  _331
REMARK  138  A    between atoms: _330  and  _333
REMARK  139  A    between atoms: _333  and  _334
REMARK  140  A    between atoms: _337  and  _339
REMARK  141  A    between atoms: _339  and  _340
REMARK  142  A    between atoms: _339  and  _342
REMARK  143  A    between atoms: _342  and  _343
REMARK  144  A    between atoms: _346  and  _348
REMARK  145  A    between atoms: _348  and  _349
REMARK  146  A    between atoms: _348  and  _351
REMARK  147  A    between atoms: _351  and  _352
REMARK  148  A    between atoms: _355  and  _357
REMARK  149  A    between atoms: _357  and  _358
REMARK  150  A    between atoms: _357  and  _360
REMARK  151  A    between atoms: _363  and  _365
REMARK  152  A    between atoms: _365  and  _366
REMARK  153  A    between atoms: _365  and  _368
REMARK  154  A    between atoms: _368  and  _369
REMARK  155  A    between atoms: _369  and  _370
REMARK  156  A    between atoms: _370  and  _371
REMARK  157  A    between atoms: _371  and  _372
REMARK  158  A    between atoms: _376  and  _378
REMARK  159  A    between atoms: _378  and  _379
REMARK  160  A    between atoms: _378  and  _381
REMARK  161  A    between atoms: _381  and  _382
REMARK  162  A    between atoms: _385  and  _387
REMARK  163  A    between atoms: _387  and  _388
REMARK  164  A    between atoms: _390  and  _392
REMARK  165  A    between atoms: _392  and  _393
REMARK  166  A    between atoms: _395  and  _397
REMARK  167  A    between atoms: _397  and  _398
REMARK  168  A    between atoms: _397  and  _400
REMARK  169  A    between atoms: _400  and  _401
REMARK  170  A    between atoms: _404  and  _406
REMARK  171  A    between atoms: _406  and  _407
REMARK  172  A    between atoms: _409  and  _411
REMARK  173  A    between atoms: _411  and  _412
REMARK  174  A    between atoms: _414  and  _416
REMARK  175  A    between atoms: _416  and  _417
REMARK  176  A    between atoms: _416  and  _419
REMARK  177  A    between atoms: _419  and  _420
REMARK  178  A    between atoms: _423  and  _425
REMARK  179  A    between atoms: _425  and  _426
REMARK  180  A    between atoms: _425  and  _428
REMARK  181  A    between atoms: _428  and  _429
REMARK  182  A    between atoms: _433  and  _434
REMARK  183  A    between atoms: _439  and  _441
REMARK  184  A    between atoms: _441  and  _442
REMARK  185  A    between atoms: _441  and  _444
REMARK  186  A    between atoms: _444  and  _445
REMARK  187  A    between atoms: _449  and  _450
REMARK  188  A    between atoms: _455  and  _457
REMARK  189  A    between atoms: _457  and  _458
REMARK  190  A    between atoms: _457  and  _460
REMARK  191  A    between atoms: _463  and  _465
REMARK  192  A    between atoms: _465  and  _466
REMARK  193  A    between atoms: _465  and  _468
REMARK  194  A    between atoms: _468  and  _469
REMARK  195  A    between atoms: _474  and  _476
REMARK  196  A    between atoms: _476  and  _477
REMARK  197  A    between atoms: _476  and  _479
REMARK  198  A    between atoms: _479  and  _480
REMARK  199  A    between atoms: _483  and  _485
REMARK  200  A    between atoms: _485  and  _486
REMARK  201  A    between atoms: _485  and  _488
REMARK  202  A    between atoms: _488  and  _489
REMARK  203  A    between atoms: _492  and  _494
REMARK  204  A    between atoms: _494  and  _495
REMARK  205  A    between atoms: _497  and  _499
REMARK  206  A    between atoms: _499  and  _500
REMARK  207  A    between atoms: _499  and  _502
REMARK  208  A    between atoms: _502  and  _503
REMARK  209  A    between atoms: _503  and  _504
REMARK  210  A    between atoms: _504  and  _505
REMARK  211  A    between atoms: _514  and  _516
REMARK  212  A    between atoms: _516  and  _517
REMARK  213  A    between atoms: _516  and  _519
REMARK  214  A    between atoms: _519  and  _520
REMARK                            x       y       z     vdW  Elec       q    Type
REMARK                         _______ _______ _______ _____ _____    ______ ____
ROOT
ATOM      1  O   HOH     1      16.251  20.123  -2.694  0.00  0.00    +0.000 OA
ENDROOT
TORSDOF 0
REMARK  Name = ../refined-set-2016/1hpv/1hpv_pocket.pdb
REMARK  214 active torsions:
REMARK  status: ('A' for Active; 'I' for Inactive)
REMARK    1  A    between atoms: _1  and  _3
REMARK    2  A    between atoms: _3  and  _4
REMARK    3  A    between atoms: _3  and  _6
REMARK    4  A    between atoms: _6  and  _7
REMARK    5  A    between atoms: _7  and  _8
REMARK    6  A    between atoms: _8  and  _9
REMARK    7  A    between atoms: _18  and  _20
REMARK    8  A    between atoms: _20  and  _21
REMARK    9  A    between atoms: _20  and  _23
REMARK   10  A    between atoms: _23  and  _24
REMARK   11  A    between atoms: _27  and  _29
REMARK   12  A    between atoms: _29  and  _30
REMARK   13  A    between atoms: _29  and  _32
REMARK   14  A    between atoms: _32  and  _33
REMARK   15  A    between atoms: _36  and  _38
REMARK   16  A    between atoms: _38  and  _39
REMARK   17  A    between atoms: _38  and  _41
REMARK   18  A    between atoms: _41  and  _42
REMARK   19  A    between atoms: _45  and  _47
REMARK   20  A    between atoms: _47  and  _48
REMARK   21  A    between atoms: _47  and  _50
REMARK   22  A    between atoms: _50  and  _51
REMARK   23  A    between atoms: _54  and  _56
REMARK   24  A    between atoms: _56  and  _57
REMARK   25  A    between atoms: _59  and  _61
REMARK   26  A    between atoms: _61  and  _62
REMARK   27  A    between atoms: _65  and  _67
REMARK   28  A    between atoms: _67  and  _68
REMARK   29  A    between atoms: _67  and  _70
REMARK   30  A    between atoms: _70  and  _71
REMARK   31  A    between atoms: _74  and  _76
REMARK   32  A    between atoms: _76  and  _77
REMARK   33  A    between atoms: _76  and  _79
REMARK   34  A    between atoms: _79  and  _80
REMARK   35  A    between atoms: _83  and  _85
REMARK   36  A    between atoms: _85  and  _86
REMARK   37  A    between atoms: _85  and  _88
REMARK   38  A    between atoms: _88  and  _89
REMARK   39  A    between atoms: _92  and  _94
REMARK   40  A    between atoms: _94  and  _95
REMARK   41  A    between atoms: _94  and  _97
REMARK   42  A    between atoms: _100  and  _102
REMARK   43  A    between atoms: _102  and  _103
REMARK   44  A    between atoms: _102  and  _105
REMARK   45  A    between atoms: _105  and  _106
REMARK   46  A    between atoms: _106  and  _107
REMARK   47  A    between atoms: _107  and  _108
REMARK   48  A    between atoms: _108  and  _109
REMARK   49  A    between atoms: _113  and  _115
REMARK   50  A    between atoms: _115  and  _116
REMARK   51  A    between atoms: _115  and  _118
REMARK   52  A    between atoms: _118  and  _119
REMARK   53  A    between atoms: _119  and  _120
REMARK   54  A    between atoms: _122  and  _124
REMARK   55  A    between atoms: _124  and  _125
REMARK   56  A    between atoms: _124  and  _127
REMARK   57  A    between atoms: _127  and  _128
REMARK   58  A    between atoms: _131  and  _133
REMARK   59  A    between atoms: _133  and  _134
REMARK   60  A    between atoms: _136  and  _138
REMARK   61  A    between atoms: _138  and  _139
REMARK   62  A    between atoms: _141  and  _143
REMARK   63  A    between atoms: _143  and  _144
REMARK   64  A    between atoms: _143  and  _146
REMARK   65  A    between atoms: _146  and  _147
REMARK   66  A    between atoms: _150  and  _152
REMARK   67  A    between atoms: _152  and  _153
REMARK   68  A    between atoms: _155  and  _157
REMARK   69  A    between atoms: _157  and  _158
REMARK   70  A    between atoms: _160  and  _162
REMARK   71  A    between atoms: _162  and  _163
REMARK   72  A    between atoms: _162  and  _165
REMARK   73  A    between atoms: _165  and  _166
REMARK   74  A    between atoms: _169  and  _171
REMARK   75  A    between atoms: _171  and  _172
REMARK   76  A    between atoms: _171  and  _174
REMARK   77  A    between atoms: _174  and  _175
REMARK   78  A    between atoms: _178  and  _180
REMARK   79  A    between atoms: _180  and  _181
REMARK   80  A    between atoms: _180  and  _183
REMARK   81  A    between atoms: _183  and  _184
REMARK   82  A    between atoms: _188  and  _189
REMARK   83  A    between atoms: _194  and  _196
REMARK   84  A    between atoms: _196  and  _197
REMARK   85  A    between atoms: _196  and  _199
REMARK   86  A    between atoms: _202  and  _204
REMARK   87  A    between atoms: _204  and  _205
REMARK   88  A    between atoms: _204  and  _207
REMARK   89  A    between atoms: _207  and  _208
REMARK   90  A    between atoms: _213  and  _215
REMARK   91  A    between atoms: _215  and  _216
REMARK   92  A    between atoms: _215  and  _218
REMARK   93  A    between atoms: _218  and  _219
REMARK   94  A    between atoms: _222  and  _224
REMARK   95  A    between atoms: _224  and  _225
REMARK   96  A    between atoms: _224  and  _227
REMARK   97  A    between atoms: _227  and  _228
REMARK   98  A    between atoms: _231  and  _233
REMARK   99  A    between atoms: _233  and  _234
REMARK  100  A    between atoms: _236  and  _238
REMARK  101  A    between atoms: _238  and  _239
REMARK  102  A    between atoms: _238  and  _241
REMARK  103  A    between atoms: _241  and  _242
REMARK  104  A    between atoms: _242  and  _243
REMARK  105  A    between atoms: _243  and  _244
REMARK  106  A    between atoms: _253  and  _255
REMARK  107  A    between atoms: _255  and  _256
REMARK  108  A    between atoms: _255  and  _258
REMARK  109  A    between atoms: _258  and  _259
REMARK  110  A    between atoms: _264  and  _266
REMARK  111  A    between atoms: _266  and  _267
REMARK  112  A    between atoms: _266  and  _269
REMARK  113  A    between atoms: _269  and  _270
REMARK  114  A    between atoms: _270  and  _271
REMARK  115  A    between atoms: _271  and  _272
REMARK  116  A    between atoms: _281  and  _283
REMARK  117  A    between atoms: _283  and  _284
REMARK  118  A    between atoms: _283  and  _286
REMARK  119  A    between atoms: _286  and  _287
REMARK  120  A    between atoms: _290  and  _292
REMARK  121  A    between atoms: _292  and  _293
REMARK  122  A    between atoms: _292  and  _295
REMARK  123  A    between atoms: _295  and  _296
REMARK  124  A    between atoms: _299  and  _301
REMARK  125  A    between atoms: _301  and  _302
REMARK  126  A    between atoms: _301  and  _304
REMARK  127  A    between atoms: _304  and  _305
REMARK  128  A    between atoms: _308  and  _310
REMARK  129  A    between atoms: _310  and  _311
REMARK  130  A    between atoms: _310  and  _313
REMARK  131  A    between atoms: _313  and  _314
REMARK  132  A    between atoms: _317  and  _319
REMARK  133  A    between atoms: _319  and  _320
REMARK  134  A    between atoms: _322  and  _324
REMARK  135  A    between atoms: _324  and  _325
REMARK  136  A    between atoms: _328  and  _330
REMARK  137  A    between atoms: _330  and  _331
REMARK  138  A    between atoms: _330  and  _333
REMARK  139  A    between atoms: _333  and  _334
REMARK  140  A    between atoms: _337  and  _339
REMARK  141  A    between atoms: _339  and  _340
REMARK  142  A    between atoms: _339  and  _342
REMARK  143  A    between atoms: _342  and  _343
REMARK  144  A    between atoms: _346  and  _348
REMARK  145  A    between atoms: _348  and  _349
REMARK  146  A    between atoms: _348  and  _351
REMARK  147  A    between atoms: _351  and  _352
REMARK  148  A    between atoms: _355  and  _357
REMARK  149  A    between atoms: _357  and  _358
REMARK  150  A    between atoms: _357  and  _360
REMARK  151  A    between atoms: _363  and  _365
REMARK  152  A    between atoms: _365  and  _366
REMARK  153  A    between atoms: _365  and  _368
REMARK  154  A    between atoms: _368  and  _369
REMARK  155  A    between atoms: _369  and  _370
REMARK  156  A    between atoms: _370  and  _371
REMARK  157  A    between atoms: _371  and  _372
REMARK  158  A    between atoms: _376  and  _378
REMARK  159  A    between atoms: _378  and  _379
REMARK  160  A    between atoms: _378  and  _381
REMARK  161  A    between atoms: _381  and  _382
REMARK  162  A    between atoms: _385  and  _387
REMARK  163  A    between atoms: _387  and  _388
REMARK  164  A    between atoms: _390  and  _392
REMARK  165  A    between atoms: _392  and  _393
REMARK  166  A    between atoms: _395  and  _397
REMARK  167  A    between atoms: _397  and  _398
REMARK  168  A    between atoms: _397  and  _400
REMARK  169  A    between atoms: _400  and  _401
REMARK  170  A    between atoms: _404  and  _406
REMARK  171  A    between atoms: _406  and  _407
REMARK  172  A    between atoms: _409  and  _411
REMARK  173  A    between atoms: _411  and  _412
REMARK  174  A    between atoms: _414  and  _416
REMARK  175  A    between atoms: _416  and  _417
REMARK  176  A    between atoms: _416  and  _419
REMARK  177  A    between atoms: _419  and  _420
REMARK  178  A    between atoms: _423  and  _425
REMARK  179  A    between atoms: _425  and  _426
REMARK  180  A    between atoms: _425  and  _428
REMARK  181  A    between atoms: _428  and  _429
REMARK  182  A    between atoms: _433  and  _434
REMARK  183  A    between atoms: _439  and  _441
REMARK  184  A    between atoms: _441  and  _442
REMARK  185  A    between atoms: _441  and  _444
REMARK  186  A    between atoms: _444  and  _445
REMARK  187  A    between atoms: _449  and  _450
REMARK  188  A    between atoms: _455  and  _457
REMARK  189  A    between atoms: _457  and  _458
REMARK  190  A    between atoms: _457  and  _460
REMARK  191  A    between atoms: _463  and  _465
REMARK  192  A    between atoms: _465  and  _466
REMARK  193  A    between atoms: _465  and  _468
REMARK  194  A    between atoms: _468  and  _469
REMARK  195  A    between atoms: _474  and  _476
REMARK  196  A    between atoms: _476  and  _477
REMARK  197  A    between atoms: _476  and  _479
REMARK  198  A    between atoms: _479  and  _480
REMARK  199  A    between atoms: _483  and  _485
REMARK  200  A    between atoms: _485  and  _486
REMARK  201  A    between atoms: _485  and  _488
REMARK  202  A    between atoms: _488  and  _489
REMARK  203  A    between atoms: _492  and  _494
REMARK  204  A    between atoms: _494  and  _495
REMARK  205  A    between atoms: _497  and  _499
REMARK  206  A    between atoms: _499  and  _500
REMARK  207  A    between atoms: _499  and  _502
REMARK  208  A    between atoms: _502  and  _503
REMARK  209  A    between atoms: _503  and  _504
REMARK  210  A    between atoms: _504  and  _505
REMARK  211  A    between atoms: _514  and  _516
REMARK  212  A    between atoms: _516  and  _517
REMARK  213  A    between atoms: _516  and  _519
REMARK  214  A    between atoms: _519  and  _520
REMARK                            x       y       z     vdW  Elec       q    Type
REMARK                         _______ _______ _______ _____ _____    ______ ____
ROOT
ATOM      1  O   HOH     1      10.690   6.531   6.650  0.00  0.00    +0.000 OA
ENDROOT
TORSDOF 0
REMARK  Name = ../refined-set-2016/1hpv/1hpv_pocket.pdb
REMARK  214 active torsions:
REMARK  status: ('A' for Active; 'I' for Inactive)
REMARK    1  A    between atoms: _1  and  _3
REMARK    2  A    between atoms: _3  and  _4
REMARK    3  A    between atoms: _3  and  _6
REMARK    4  A    between atoms: _6  and  _7
REMARK    5  A    between atoms: _7  and  _8
REMARK    6  A    between atoms: _8  and  _9
REMARK    7  A    between atoms: _18  and  _20
REMARK    8  A    between atoms: _20  and  _21
REMARK    9  A    between atoms: _20  and  _23
REMARK   10  A    between atoms: _23  and  _24
REMARK   11  A    between atoms: _27  and  _29
REMARK   12  A    between atoms: _29  and  _30
REMARK   13  A    between atoms: _29  and  _32
REMARK   14  A    between atoms: _32  and  _33
REMARK   15  A    between atoms: _36  and  _38
REMARK   16  A    between atoms: _38  and  _39
REMARK   17  A    between atoms: _38  and  _41
REMARK   18  A    between atoms: _41  and  _42
REMARK   19  A    between atoms: _45  and  _47
REMARK   20  A    between atoms: _47  and  _48
REMARK   21  A    between atoms: _47  and  _50
REMARK   22  A    between atoms: _50  and  _51
REMARK   23  A    between atoms: _54  and  _56
REMARK   24  A    between atoms: _56  and  _57
REMARK   25  A    between atoms: _59  and  _61
REMARK   26  A    between atoms: _61  and  _62
REMARK   27  A    between atoms: _65  and  _67
REMARK   28  A    between atoms: _67  and  _68
REMARK   29  A    between atoms: _67  and  _70
REMARK   30  A    between atoms: _70  and  _71
REMARK   31  A    between atoms: _74  and  _76
REMARK   32  A    between atoms: _76  and  _77
REMARK   33  A    between atoms: _76  and  _79
REMARK   34  A    between atoms: _79  and  _80
REMARK   35  A    between atoms: _83  and  _85
REMARK   36  A    between atoms: _85  and  _86
REMARK   37  A    between atoms: _85  and  _88
REMARK   38  A    between atoms: _88  and  _89
REMARK   39  A    between atoms: _92  and  _94
REMARK   40  A    between atoms: _94  and  _95
REMARK   41  A    between atoms: _94  and  _97
REMARK   42  A    between atoms: _100  and  _102
REMARK   43  A    between atoms: _102  and  _103
REMARK   44  A    between atoms: _102  and  _105
REMARK   45  A    between atoms: _105  and  _106
REMARK   46  A    between atoms: _106  and  _107
REMARK   47  A    between atoms: _107  and  _108
REMARK   48  A    between atoms: _108  and  _109
REMARK   49  A    between atoms: _113  and  _115
REMARK   50  A    between atoms: _115  and  _116
REMARK   51  A    between atoms: _115  and  _118
REMARK   52  A    between atoms: _118  and  _119
REMARK   53  A    between atoms: _119  and  _120
REMARK   54  A    between atoms: _122  and  _124
REMARK   55  A    between atoms: _124  and  _125
REMARK   56  A    between atoms: _124  and  _127
REMARK   57  A    between atoms: _127  and  _128
REMARK   58  A    between atoms: _131  and  _133
REMARK   59  A    between atoms: _133  and  _134
REMARK   60  A    between atoms: _136  and  _138
REMARK   61  A    between atoms: _138  and  _139
REMARK   62  A    between atoms: _141  and  _143
REMARK   63  A    between atoms: _143  and  _144
REMARK   64  A    between atoms: _143  and  _146
REMARK   65  A    between atoms: _146  and  _147
REMARK   66  A    between atoms: _150  and  _152
REMARK   67  A    between atoms: _152  and  _153
REMARK   68  A    between atoms: _155  and  _157
REMARK   69  A    between atoms: _157  and  _158
REMARK   70  A    between atoms: _160  and  _162
REMARK   71  A    between atoms: _162  and  _163
REMARK   72  A    between atoms: _162  and  _165
REMARK   73  A    between atoms: _165  and  _166
REMARK   74  A    between atoms: _169  and  _171
REMARK   75  A    between atoms: _171  and  _172
REMARK   76  A    between atoms: _171  and  _174
REMARK   77  A    between atoms: _174  and  _175
REMARK   78  A    between atoms: _178  and  _180
REMARK   79  A    between atoms: _180  and  _181
REMARK   80  A    between atoms: _180  and  _183
REMARK   81  A    between atoms: _183  and  _184
REMARK   82  A    between atoms: _188  and  _189
REMARK   83  A    between atoms: _194  and  _196
REMARK   84  A    between atoms: _196  and  _197
REMARK   85  A    between atoms: _196  and  _199
REMARK   86  A    between atoms: _202  and  _204
REMARK   87  A    between atoms: _204  and  _205
REMARK   88  A    between atoms: _204  and  _207
REMARK   89  A    between atoms: _207  and  _208
REMARK   90  A    between atoms: _213  and  _215
REMARK   91  A    between atoms: _215  and  _216
REMARK   92  A    between atoms: _215  and  _218
REMARK   93  A    between atoms: _218  and  _219
REMARK   94  A    between atoms: _222  and  _224
REMARK   95  A    between atoms: _224  and  _225
REMARK   96  A    between atoms: _224  and  _227
REMARK   97  A    between atoms: _227  and  _228
REMARK   98  A    between atoms: _231  and  _233
REMARK   99  A    between atoms: _233  and  _234
REMARK  100  A    between atoms: _236  and  _238
REMARK  101  A    between atoms: _238  and  _239
REMARK  102  A    between atoms: _238  and  _241
REMARK  103  A    between atoms: _241  and  _242
REMARK  104  A    between atoms: _242  and  _243
REMARK  105  A    between atoms: _243  and  _244
REMARK  106  A    between atoms: _253  and  _255
REMARK  107  A    between atoms: _255  and  _256
REMARK  108  A    between atoms: _255  and  _258
REMARK  109  A    between atoms: _258  and  _259
REMARK  110  A    between atoms: _264  and  _266
REMARK  111  A    between atoms: _266  and  _267
REMARK  112  A    between atoms: _266  and  _269
REMARK  113  A    between atoms: _269  and  _270
REMARK  114  A    between atoms: _270  and  _271
REMARK  115  A    between atoms: _271  and  _272
REMARK  116  A    between atoms: _281  and  _283
REMARK  117  A    between atoms: _283  and  _284
REMARK  118  A    between atoms: _283  and  _286
REMARK  119  A    between atoms: _286  and  _287
REMARK  120  A    between atoms: _290  and  _292
REMARK  121  A    between atoms: _292  and  _293
REMARK  122  A    between atoms: _292  and  _295
REMARK  123  A    between atoms: _295  and  _296
REMARK  124  A    between atoms: _299  and  _301
REMARK  125  A    between atoms: _301  and  _302
REMARK  126  A    between atoms: _301  and  _304
REMARK  127  A    between atoms: _304  and  _305
REMARK  128  A    between atoms: _308  and  _310
REMARK  129  A    between atoms: _310  and  _311
REMARK  130  A    between atoms: _310  and  _313
REMARK  131  A    between atoms: _313  and  _314
REMARK  132  A    between atoms: _317  and  _319
REMARK  133  A    between atoms: _319  and  _320
REMARK  134  A    between atoms: _322  and  _324
REMARK  135  A    between atoms: _324  and  _325
REMARK  136  A    between atoms: _328  and  _330
REMARK  137  A    between atoms: _330  and  _331
REMARK  138  A    between atoms: _330  and  _333
REMARK  139  A    between atoms: _333  and  _334
REMARK  140  A    between atoms: _337  and  _339
REMARK  141  A    between atoms: _339  and  _340
REMARK  142  A    between atoms: _339  and  _342
REMARK  143  A    between atoms: _342  and  _343
REMARK  144  A    between atoms: _346  and  _348
REMARK  145  A    between atoms: _348  and  _349
REMARK  146  A    between atoms: _348  and  _351
REMARK  147  A    between atoms: _351  and  _352
REMARK  148  A    between atoms: _355  and  _357
REMARK  149  A    between atoms: _357  and  _358
REMARK  150  A    between atoms: _357  and  _360
REMARK  151  A    between atoms: _363  and  _365
REMARK  152  A    between atoms: _365  and  _366
REMARK  153  A    between atoms: _365  and  _368
REMARK  154  A    between atoms: _368  and  _369
REMARK  155  A    between atoms: _369  and  _370
REMARK  156  A    between atoms: _370  and  _371
REMARK  157  A    between atoms: _371  and  _372
REMARK  158  A    between atoms: _376  and  _378
REMARK  159  A    between atoms: _378  and  _379
REMARK  160  A    between atoms: _378  and  _381
REMARK  161  A    between atoms: _381  and  _382
REMARK  162  A    between atoms: _385  and  _387
REMARK  163  A    between atoms: _387  and  _388
REMARK  164  A    between atoms: _390  and  _392
REMARK  165  A    between atoms: _392  and  _393
REMARK  166  A    between atoms: _395  and  _397
REMARK  167  A    between atoms: _397  and  _398
REMARK  168  A    between atoms: _397  and  _400
REMARK  169  A    between atoms: _400  and  _401
REMARK  170  A    between atoms: _404  and  _406
REMARK  171  A    between atoms: _406  and  _407
REMARK  172  A    between atoms: _409  and  _411
REMARK  173  A    between atoms: _411  and  _412
REMARK  174  A    between atoms: _414  and  _416
REMARK  175  A    between atoms: _416  and  _417
REMARK  176  A    between atoms: _416  and  _419
REMARK  177  A    between atoms: _419  and  _420
REMARK  178  A    between atoms: _423  and  _425
REMARK  179  A    between atoms: _425  and  _426
REMARK  180  A    between atoms: _425  and  _428
REMARK  181  A    between atoms: _428  and  _429
REMARK  182  A    between atoms: _433  and  _434
REMARK  183  A    between atoms: _439  and  _441
REMARK  184  A    between atoms: _441  and  _442
REMARK  185  A    between atoms: _441  and  _444
REMARK  186  A    between atoms: _444  and  _445
REMARK  187  A    between atoms: _449  and  _450
REMARK  188  A    between atoms: _455  and  _457
REMARK  189  A    between atoms: _457  and  _458
REMARK  190  A    between atoms: _457  and  _460
REMARK  191  A    between atoms: _463  and  _465
REMARK  192  A    between atoms: _465  and  _466
REMARK  193  A    between atoms: _465  and  _468
REMARK  194  A    between atoms: _468  and  _469
REMARK  195  A    between atoms: _474  and  _476
REMARK  196  A    between atoms: _476  and  _477
REMARK  197  A    between atoms: _476  and  _479
REMARK  198  A    between atoms: _479  and  _480
REMARK  199  A    between atoms: _483  and  _485
REMARK  200  A    between atoms: _485  and  _486
REMARK  201  A    between atoms: _485  and  _488
REMARK  202  A    between atoms: _488  and  _489
REMARK  203  A    between atoms: _492  and  _494
REMARK  204  A    between atoms: _494  and  _495
REMARK  205  A    between atoms: _497  and  _499
REMARK  206  A    between atoms: _499  and  _500
REMARK  207  A    between atoms: _499  and  _502
REMARK  208  A    between atoms: _502  and  _503
REMARK  209  A    between atoms: _503  and  _504
REMARK  210  A    between atoms: _504  and  _505
REMARK  211  A    between atoms: _514  and  _516
REMARK  212  A    between atoms: _516  and  _517
REMARK  213  A    between atoms: _516  and  _519
REMARK  214  A    between atoms: _519  and  _520
REMARK                            x       y       z     vdW  Elec       q    Type
REMARK                         _______ _______ _______ _____ _____    ______ ____
ROOT
ATOM      1  O   HOH     1       1.614  12.400   5.821  0.00  0.00    +0.000 OA
ENDROOT
TORSDOF 0
REMARK  Name = ../refined-set-2016/1hpv/1hpv_pocket.pdb
REMARK  214 active torsions:
REMARK  status: ('A' for Active; 'I' for Inactive)
REMARK    1  A    between atoms: _1  and  _3
REMARK    2  A    between atoms: _3  and  _4
REMARK    3  A    between atoms: _3  and  _6
REMARK    4  A    between atoms: _6  and  _7
REMARK    5  A    between atoms: _7  and  _8
REMARK    6  A    between atoms: _8  and  _9
REMARK    7  A    between atoms: _18  and  _20
REMARK    8  A    between atoms: _20  and  _21
REMARK    9  A    between atoms: _20  and  _23
REMARK   10  A    between atoms: _23  and  _24
REMARK   11  A    between atoms: _27  and  _29
REMARK   12  A    between atoms: _29  and  _30
REMARK   13  A    between atoms: _29  and  _32
REMARK   14  A    between atoms: _32  and  _33
REMARK   15  A    between atoms: _36  and  _38
REMARK   16  A    between atoms: _38  and  _39
REMARK   17  A    between atoms: _38  and  _41
REMARK   18  A    between atoms: _41  and  _42
REMARK   19  A    between atoms: _45  and  _47
REMARK   20  A    between atoms: _47  and  _48
REMARK   21  A    between atoms: _47  and  _50
REMARK   22  A    between atoms: _50  and  _51
REMARK   23  A    between atoms: _54  and  _56
REMARK   24  A    between atoms: _56  and  _57
REMARK   25  A    between atoms: _59  and  _61
REMARK   26  A    between atoms: _61  and  _62
REMARK   27  A    between atoms: _65  and  _67
REMARK   28  A    between atoms: _67  and  _68
REMARK   29  A    between atoms: _67  and  _70
REMARK   30  A    between atoms: _70  and  _71
REMARK   31  A    between atoms: _74  and  _76
REMARK   32  A    between atoms: _76  and  _77
REMARK   33  A    between atoms: _76  and  _79
REMARK   34  A    between atoms: _79  and  _80
REMARK   35  A    between atoms: _83  and  _85
REMARK   36  A    between atoms: _85  and  _86
REMARK   37  A    between atoms: _85  and  _88
REMARK   38  A    between atoms: _88  and  _89
REMARK   39  A    between atoms: _92  and  _94
REMARK   40  A    between atoms: _94  and  _95
REMARK   41  A    between atoms: _94  and  _97
REMARK   42  A    between atoms: _100  and  _102
REMARK   43  A    between atoms: _102  and  _103
REMARK   44  A    between atoms: _102  and  _105
REMARK   45  A    between atoms: _105  and  _106
REMARK   46  A    between atoms: _106  and  _107
REMARK   47  A    between atoms: _107  and  _108
REMARK   48  A    between atoms: _108  and  _109
REMARK   49  A    between atoms: _113  and  _115
REMARK   50  A    between atoms: _115  and  _116
REMARK   51  A    between atoms: _115  and  _118
REMARK   52  A    between atoms: _118  and  _119
REMARK   53  A    between atoms: _119  and  _120
REMARK   54  A    between atoms: _122  and  _124
REMARK   55  A    between atoms: _124  and  _125
REMARK   56  A    between atoms: _124  and  _127
REMARK   57  A    between atoms: _127  and  _128
REMARK   58  A    between atoms: _131  and  _133
REMARK   59  A    between atoms: _133  and  _134
REMARK   60  A    between atoms: _136  and  _138
REMARK   61  A    between atoms: _138  and  _139
REMARK   62  A    between atoms: _141  and  _143
REMARK   63  A    between atoms: _143  and  _144
REMARK   64  A    between atoms: _143  and  _146
REMARK   65  A    between atoms: _146  and  _147
REMARK   66  A    between atoms: _150  and  _152
REMARK   67  A    between atoms: _152  and  _153
REMARK   68  A    between atoms: _155  and  _157
REMARK   69  A    between atoms: _157  and  _158
REMARK   70  A    between atoms: _160  and  _162
REMARK   71  A    between atoms: _162  and  _163
REMARK   72  A    between atoms: _162  and  _165
REMARK   73  A    between atoms: _165  and  _166
REMARK   74  A    between atoms: _169  and  _171
REMARK   75  A    between atoms: _171  and  _172
REMARK   76  A    between atoms: _171  and  _174
REMARK   77  A    between atoms: _174  and  _175
REMARK   78  A    between atoms: _178  and  _180
REMARK   79  A    between atoms: _180  and  _181
REMARK   80  A    between atoms: _180  and  _183
REMARK   81  A    between atoms: _183  and  _184
REMARK   82  A    between atoms: _188  and  _189
REMARK   83  A    between atoms: _194  and  _196
REMARK   84  A    between atoms: _196  and  _197
REMARK   85  A    between atoms: _196  and  _199
REMARK   86  A    between atoms: _202  and  _204
REMARK   87  A    between atoms: _204  and  _205
REMARK   88  A    between atoms: _204  and  _207
REMARK   89  A    between atoms: _207  and  _208
REMARK   90  A    between atoms: _213  and  _215
REMARK   91  A    between atoms: _215  and  _216
REMARK   92  A    between atoms: _215  and  _218
REMARK   93  A    between atoms: _218  and  _219
REMARK   94  A    between atoms: _222  and  _224
REMARK   95  A    between atoms: _224  and  _225
REMARK   96  A    between atoms: _224  and  _227
REMARK   97  A    between atoms: _227  and  _228
REMARK   98  A    between atoms: _231  and  _233
REMARK   99  A    between atoms: _233  and  _234
REMARK  100  A    between atoms: _236  and  _238
REMARK  101  A    between atoms: _238  and  _239
REMARK  102  A    between atoms: _238  and  _241
REMARK  103  A    between atoms: _241  and  _242
REMARK  104  A    between atoms: _242  and  _243
REMARK  105  A    between atoms: _243  and  _244
REMARK  106  A    between atoms: _253  and  _255
REMARK  107  A    between atoms: _255  and  _256
REMARK  108  A    between atoms: _255  and  _258
REMARK  109  A    between atoms: _258  and  _259
REMARK  110  A    between atoms: _264  and  _266
REMARK  111  A    between atoms: _266  and  _267
REMARK  112  A    between atoms: _266  and  _269
REMARK  113  A    between atoms: _269  and  _270
REMARK  114  A    between atoms: _270  and  _271
REMARK  115  A    between atoms: _271  and  _272
REMARK  116  A    between atoms: _281  and  _283
REMARK  117  A    between atoms: _283  and  _284
REMARK  118  A    between atoms: _283  and  _286
REMARK  119  A    between atoms: _286  and  _287
REMARK  120  A    between atoms: _290  and  _292
REMARK  121  A    between atoms: _292  and  _293
REMARK  122  A    between atoms: _292  and  _295
REMARK  123  A    between atoms: _295  and  _296
REMARK  124  A    between atoms: _299  and  _301
REMARK  125  A    between atoms: _301  and  _302
REMARK  126  A    between atoms: _301  and  _304
REMARK  127  A    between atoms: _304  and  _305
REMARK  128  A    between atoms: _308  and  _310
REMARK  129  A    between atoms: _310  and  _311
REMARK  130  A    between atoms: _310  and  _313
REMARK  131  A    between atoms: _313  and  _314
REMARK  132  A    between atoms: _317  and  _319
REMARK  133  A    between atoms: _319  and  _320
REMARK  134  A    between atoms: _322  and  _324
REMARK  135  A    between atoms: _324  and  _325
REMARK  136  A    between atoms: _328  and  _330
REMARK  137  A    between atoms: _330  and  _331
REMARK  138  A    between atoms: _330  and  _333
REMARK  139  A    between atoms: _333  and  _334
REMARK  140  A    between atoms: _337  and  _339
REMARK  141  A    between atoms: _339  and  _340
REMARK  142  A    between atoms: _339  and  _342
REMARK  143  A    between atoms: _342  and  _343
REMARK  144  A    between atoms: _346  and  _348
REMARK  145  A    between atoms: _348  and  _349
REMARK  146  A    between atoms: _348  and  _351
REMARK  147  A    between atoms: _351  and  _352
REMARK  148  A    between atoms: _355  and  _357
REMARK  149  A    between atoms: _357  and  _358
REMARK  150  A    between atoms: _357  and  _360
REMARK  151  A    between atoms: _363  and  _365
REMARK  152  A    between atoms: _365  and  _366
REMARK  153  A    between atoms: _365  and  _368
REMARK  154  A    between atoms: _368  and  _369
REMARK  155  A    between atoms: _369  and  _370
REMARK  156  A    between atoms: _370  and  _371
REMARK  157  A    between atoms: _371  and  _372
REMARK  158  A    between atoms: _376  and  _378
REMARK  159  A    between atoms: _378  and  _379
REMARK  160  A    between atoms: _378  and  _381
REMARK  161  A    between atoms: _381  and  _382
REMARK  162  A    between atoms: _385  and  _387
REMARK  163  A    between atoms: _387  and  _388
REMARK  164  A    between atoms: _390  and  _392
REMARK  165  A    between atoms: _392  and  _393
REMARK  166  A    between atoms: _395  and  _397
REMARK  167  A    between atoms: _397  and  _398
REMARK  168  A    between atoms: _397  and  _400
REMARK  169  A    between atoms: _400  and  _401
REMARK  170  A    between atoms: _404  and  _406
REMARK  171  A    between atoms: _406  and  _407
REMARK  172  A    between atoms: _409  and  _411
REMARK  173  A    between atoms: _411  and  _412
REMARK  174  A    between atoms: _414  and  _416
REMARK  175  A    between atoms: _416  and  _417
REMARK  176  A    between atoms: _416  and  _419
REMARK  177  A    between atoms: _419  and  _420
REMARK  178  A    between atoms: _423  and  _425
REMARK  179  A    between atoms: _425  and  _426
REMARK  180  A    between atoms: _425  and  _428
REMARK  181  A    between atoms: _428  and  _429
REMARK  182  A    between atoms: _433  and  _434
REMARK  183  A    between atoms: _439  and  _441
REMARK  184  A    between atoms: _441  and  _442
REMARK  185  A    between atoms: _441  and  _444
REMARK  186  A    between atoms: _444  and  _445
REMARK  187  A    between atoms: _449  and  _450
REMARK  188  A    between atoms: _455  and  _457
REMARK  189  A    between atoms: _457  and  _458
REMARK  190  A    between atoms: _457  and  _460
REMARK  191  A    between atoms: _463  and  _465
REMARK  192  A    between atoms: _465  and  _466
REMARK  193  A    between atoms: _465  and  _468
REMARK  194  A    between atoms: _468  and  _469
REMARK  195  A    between atoms: _474  and  _476
REMARK  196  A    between atoms: _476  and  _477
REMARK  197  A    between atoms: _476  and  _479
REMARK  198  A    between atoms: _479  and  _480
REMARK  199  A    between atoms: _483  and  _485
REMARK  200  A    between atoms: _485  and  _486
REMARK  201  A    between atoms: _485  and  _488
REMARK  202  A    between atoms: _488  and  _489
REMARK  203  A    between atoms: _492  and  _494
REMARK  204  A    between atoms: _494  and  _495
REMARK  205  A    between atoms: _497  and  _499
REMARK  206  A    between atoms: _499  and  _500
REMARK  207  A    between atoms: _499  and  _502
REMARK  208  A    between atoms: _502  and  _503
REMARK  209  A    between atoms: _503  and  _504
REMARK  210  A    between atoms: _504  and  _505
REMARK  211  A    between atoms: _514  and  _516
REMARK  212  A    between atoms: _516  and  _517
REMARK  213  A    between atoms: _516  and  _519
REMARK  214  A    between atoms: _519  and  _520
REMARK                            x       y       z     vdW  Elec       q    Type
REMARK                         _______ _______ _______ _____ _____    ______ ____
ROOT
ATOM      1  O   HOH     1      15.239  15.936  -3.703  0.00  0.00    +0.000 OA
ENDROOT
TORSDOF 0
REMARK  Name = ../refined-set-2016/1hpv/1hpv_pocket.pdb
REMARK  214 active torsions:
REMARK  status: ('A' for Active; 'I' for Inactive)
REMARK    1  A    between atoms: _1  and  _3
REMARK    2  A    between atoms: _3  and  _4
REMARK    3  A    between atoms: _3  and  _6
REMARK    4  A    between atoms: _6  and  _7
REMARK    5  A    between atoms: _7  and  _8
REMARK    6  A    between atoms: _8  and  _9
REMARK    7  A    between atoms: _18  and  _20
REMARK    8  A    between atoms: _20  and  _21
REMARK    9  A    between atoms: _20  and  _23
REMARK   10  A    between atoms: _23  and  _24
REMARK   11  A    between atoms: _27  and  _29
REMARK   12  A    between atoms: _29  and  _30
REMARK   13  A    between atoms: _29  and  _32
REMARK   14  A    between atoms: _32  and  _33
REMARK   15  A    between atoms: _36  and  _38
REMARK   16  A    between atoms: _38  and  _39
REMARK   17  A    between atoms: _38  and  _41
REMARK   18  A    between atoms: _41  and  _42
REMARK   19  A    between atoms: _45  and  _47
REMARK   20  A    between atoms: _47  and  _48
REMARK   21  A    between atoms: _47  and  _50
REMARK   22  A    between atoms: _50  and  _51
REMARK   23  A    between atoms: _54  and  _56
REMARK   24  A    between atoms: _56  and  _57
REMARK   25  A    between atoms: _59  and  _61
REMARK   26  A    between atoms: _61  and  _62
REMARK   27  A    between atoms: _65  and  _67
REMARK   28  A    between atoms: _67  and  _68
REMARK   29  A    between atoms: _67  and  _70
REMARK   30  A    between atoms: _70  and  _71
REMARK   31  A    between atoms: _74  and  _76
REMARK   32  A    between atoms: _76  and  _77
REMARK   33  A    between atoms: _76  and  _79
REMARK   34  A    between atoms: _79  and  _80
REMARK   35  A    between atoms: _83  and  _85
REMARK   36  A    between atoms: _85  and  _86
REMARK   37  A    between atoms: _85  and  _88
REMARK   38  A    between atoms: _88  and  _89
REMARK   39  A    between atoms: _92  and  _94
REMARK   40  A    between atoms: _94  and  _95
REMARK   41  A    between atoms: _94  and  _97
REMARK   42  A    between atoms: _100  and  _102
REMARK   43  A    between atoms: _102  and  _103
REMARK   44  A    between atoms: _102  and  _105
REMARK   45  A    between atoms: _105  and  _106
REMARK   46  A    between atoms: _106  and  _107
REMARK   47  A    between atoms: _107  and  _108
REMARK   48  A    between atoms: _108  and  _109
REMARK   49  A    between atoms: _113  and  _115
REMARK   50  A    between atoms: _115  and  _116
REMARK   51  A    between atoms: _115  and  _118
REMARK   52  A    between atoms: _118  and  _119
REMARK   53  A    between atoms: _119  and  _120
REMARK   54  A    between atoms: _122  and  _124
REMARK   55  A    between atoms: _124  and  _125
REMARK   56  A    between atoms: _124  and  _127
REMARK   57  A    between atoms: _127  and  _128
REMARK   58  A    between atoms: _131  and  _133
REMARK   59  A    between atoms: _133  and  _134
REMARK   60  A    between atoms: _136  and  _138
REMARK   61  A    between atoms: _138  and  _139
REMARK   62  A    between atoms: _141  and  _143
REMARK   63  A    between atoms: _143  and  _144
REMARK   64  A    between atoms: _143  and  _146
REMARK   65  A    between atoms: _146  and  _147
REMARK   66  A    between atoms: _150  and  _152
REMARK   67  A    between atoms: _152  and  _153
REMARK   68  A    between atoms: _155  and  _157
REMARK   69  A    between atoms: _157  and  _158
REMARK   70  A    between atoms: _160  and  _162
REMARK   71  A    between atoms: _162  and  _163
REMARK   72  A    between atoms: _162  and  _165
REMARK   73  A    between atoms: _165  and  _166
REMARK   74  A    between atoms: _169  and  _171
REMARK   75  A    between atoms: _171  and  _172
REMARK   76  A    between atoms: _171  and  _174
REMARK   77  A    between atoms: _174  and  _175
REMARK   78  A    between atoms: _178  and  _180
REMARK   79  A    between atoms: _180  and  _181
REMARK   80  A    between atoms: _180  and  _183
REMARK   81  A    between atoms: _183  and  _184
REMARK   82  A    between atoms: _188  and  _189
REMARK   83  A    between atoms: _194  and  _196
REMARK   84  A    between atoms: _196  and  _197
REMARK   85  A    between atoms: _196  and  _199
REMARK   86  A    between atoms: _202  and  _204
REMARK   87  A    between atoms: _204  and  _205
REMARK   88  A    between atoms: _204  and  _207
REMARK   89  A    between atoms: _207  and  _208
REMARK   90  A    between atoms: _213  and  _215
REMARK   91  A    between atoms: _215  and  _216
REMARK   92  A    between atoms: _215  and  _218
REMARK   93  A    between atoms: _218  and  _219
REMARK   94  A    between atoms: _222  and  _224
REMARK   95  A    between atoms: _224  and  _225
REMARK   96  A    between atoms: _224  and  _227
REMARK   97  A    between atoms: _227  and  _228
REMARK   98  A    between atoms: _231  and  _233
REMARK   99  A    between atoms: _233  and  _234
REMARK  100  A    between atoms: _236  and  _238
REMARK  101  A    between atoms: _238  and  _239
REMARK  102  A    between atoms: _238  and  _241
REMARK  103  A    between atoms: _241  and  _242
REMARK  104  A    between atoms: _242  and  _243
REMARK  105  A    between atoms: _243  and  _244
REMARK  106  A    between atoms: _253  and  _255
REMARK  107  A    between atoms: _255  and  _256
REMARK  108  A    between atoms: _255  and  _258
REMARK  109  A    between atoms: _258  and  _259
REMARK  110  A    between atoms: _264  and  _266
REMARK  111  A    between atoms: _266  and  _267
REMARK  112  A    between atoms: _266  and  _269
REMARK  113  A    between atoms: _269  and  _270
REMARK  114  A    between atoms: _270  and  _271
REMARK  115  A    between atoms: _271  and  _272
REMARK  116  A    between atoms: _281  and  _283
REMARK  117  A    between atoms: _283  and  _284
REMARK  118  A    between atoms: _283  and  _286
REMARK  119  A    between atoms: _286  and  _287
REMARK  120  A    between atoms: _290  and  _292
REMARK  121  A    between atoms: _292  and  _293
REMARK  122  A    between atoms: _292  and  _295
REMARK  123  A    between atoms: _295  and  _296
REMARK  124  A    between atoms: _299  and  _301
REMARK  125  A    between atoms: _301  and  _302
REMARK  126  A    between atoms: _301  and  _304
REMARK  127  A    between atoms: _304  and  _305
REMARK  128  A    between atoms: _308  and  _310
REMARK  129  A    between atoms: _310  and  _311
REMARK  130  A    between atoms: _310  and  _313
REMARK  131  A    between atoms: _313  and  _314
REMARK  132  A    between atoms: _317  and  _319
REMARK  133  A    between atoms: _319  and  _320
REMARK  134  A    between atoms: _322  and  _324
REMARK  135  A    between atoms: _324  and  _325
REMARK  136  A    between atoms: _328  and  _330
REMARK  137  A    between atoms: _330  and  _331
REMARK  138  A    between atoms: _330  and  _333
REMARK  139  A    between atoms: _333  and  _334
REMARK  140  A    between atoms: _337  and  _339
REMARK  141  A    between atoms: _339  and  _340
REMARK  142  A    between atoms: _339  and  _342
REMARK  143  A    between atoms: _342  and  _343
REMARK  144  A    between atoms: _346  and  _348
REMARK  145  A    between atoms: _348  and  _349
REMARK  146  A    between atoms: _348  and  _351
REMARK  147  A    between atoms: _351  and  _352
REMARK  148  A    between atoms: _355  and  _357
REMARK  149  A    between atoms: _357  and  _358
REMARK  150  A    between atoms: _357  and  _360
REMARK  151  A    between atoms: _363  and  _365
REMARK  152  A    between atoms: _365  and  _366
REMARK  153  A    between atoms: _365  and  _368
REMARK  154  A    between atoms: _368  and  _369
REMARK  155  A    between atoms: _369  and  _370
REMARK  156  A    between atoms: _370  and  _371
REMARK  157  A    between atoms: _371  and  _372
REMARK  158  A    between atoms: _376  and  _378
REMARK  159  A    between atoms: _378  and  _379
REMARK  160  A    between atoms: _378  and  _381
REMARK  161  A    between atoms: _381  and  _382
REMARK  162  A    between atoms: _385  and  _387
REMARK  163  A    between atoms: _387  and  _388
REMARK  164  A    between atoms: _390  and  _392
REMARK  165  A    between atoms: _392  and  _393
REMARK  166  A    between atoms: _395  and  _397
REMARK  167  A    between atoms: _397  and  _398
REMARK  168  A    between atoms: _397  and  _400
REMARK  169  A    between atoms: _400  and  _401
REMARK  170  A    between atoms: _404  and  _406
REMARK  171  A    between atoms: _406  and  _407
REMARK  172  A    between atoms: _409  and  _411
REMARK  173  A    between atoms: _411  and  _412
REMARK  174  A    between atoms: _414  and  _416
REMARK  175  A    between atoms: _416  and  _417
REMARK  176  A    between atoms: _416  and  _419
REMARK  177  A    between atoms: _419  and  _420
REMARK  178  A    between atoms: _423  and  _425
REMARK  179  A    between atoms: _425  and  _426
REMARK  180  A    between atoms: _425  and  _428
REMARK  181  A    between atoms: _428  and  _429
REMARK  182  A    between atoms: _433  and  _434
REMARK  183  A    between atoms: _439  and  _441
REMARK  184  A    between atoms: _441  and  _442
REMARK  185  A    between atoms: _441  and  _444
REMARK  186  A    between atoms: _444  and  _445
REMARK  187  A    between atoms: _449  and  _450
REMARK  188  A    between atoms: _455  and  _457
REMARK  189  A    between atoms: _457  and  _458
REMARK  190  A    between atoms: _457  and  _460
REMARK  191  A    between atoms: _463  and  _465
REMARK  192  A    between atoms: _465  and  _466
REMARK  193  A    between atoms: _465  and  _468
REMARK  194  A    between atoms: _468  and  _469
REMARK  195  A    between atoms: _474  and  _476
REMARK  196  A    between atoms: _476  and  _477
REMARK  197  A    between atoms: _476  and  _479
REMARK  198  A    between atoms: _479  and  _480
REMARK  199  A    between atoms: _483  and  _485
REMARK  200  A    between atoms: _485  and  _486
REMARK  201  A    between atoms: _485  and  _488
REMARK  202  A    between atoms: _488  and  _489
REMARK  203  A    between atoms: _492  and  _494
REMARK  204  A    between atoms: _494  and  _495
REMARK  205  A    between atoms: _497  and  _499
REMARK  206  A    between atoms: _499  and  _500
REMARK  207  A    between atoms: _499  and  _502
REMARK  208  A    between atoms: _502  and  _503
REMARK  209  A    between atoms: _503  and  _504
REMARK  210  A    between atoms: _504  and  _505
REMARK  211  A    between atoms: _514  and  _516
REMARK  212  A    between atoms: _516  and  _517
REMARK  213  A    between atoms: _516  and  _519
REMARK  214  A    between atoms: _519  and  _520
REMARK                            x       y       z     vdW  Elec       q    Type
REMARK                         _______ _______ _______ _____ _____    ______ ____
ROOT
ATOM      1  O   HOH     1      12.589  17.809  21.777  0.00  0.00    +0.000 OA
ENDROOT
TORSDOF 0
REMARK  Name = ../refined-set-2016/1hpv/1hpv_pocket.pdb
REMARK  214 active torsions:
REMARK  status: ('A' for Active; 'I' for Inactive)
REMARK    1  A    between atoms: _1  and  _3
REMARK    2  A    between atoms: _3  and  _4
REMARK    3  A    between atoms: _3  and  _6
REMARK    4  A    between atoms: _6  and  _7
REMARK    5  A    between atoms: _7  and  _8
REMARK    6  A    between atoms: _8  and  _9
REMARK    7  A    between atoms: _18  and  _20
REMARK    8  A    between atoms: _20  and  _21
REMARK    9  A    between atoms: _20  and  _23
REMARK   10  A    between atoms: _23  and  _24
REMARK   11  A    between atoms: _27  and  _29
REMARK   12  A    between atoms: _29  and  _30
REMARK   13  A    between atoms: _29  and  _32
REMARK   14  A    between atoms: _32  and  _33
REMARK   15  A    between atoms: _36  and  _38
REMARK   16  A    between atoms: _38  and  _39
REMARK   17  A    between atoms: _38  and  _41
REMARK   18  A    between atoms: _41  and  _42
REMARK   19  A    between atoms: _45  and  _47
REMARK   20  A    between atoms: _47  and  _48
REMARK   21  A    between atoms: _47  and  _50
REMARK   22  A    between atoms: _50  and  _51
REMARK   23  A    between atoms: _54  and  _56
REMARK   24  A    between atoms: _56  and  _57
REMARK   25  A    between atoms: _59  and  _61
REMARK   26  A    between atoms: _61  and  _62
REMARK   27  A    between atoms: _65  and  _67
REMARK   28  A    between atoms: _67  and  _68
REMARK   29  A    between atoms: _67  and  _70
REMARK   30  A    between atoms: _70  and  _71
REMARK   31  A    between atoms: _74  and  _76
REMARK   32  A    between atoms: _76  and  _77
REMARK   33  A    between atoms: _76  and  _79
REMARK   34  A    between atoms: _79  and  _80
REMARK   35  A    between atoms: _83  and  _85
REMARK   36  A    between atoms: _85  and  _86
REMARK   37  A    between atoms: _85  and  _88
REMARK   38  A    between atoms: _88  and  _89
REMARK   39  A    between atoms: _92  and  _94
REMARK   40  A    between atoms: _94  and  _95
REMARK   41  A    between atoms: _94  and  _97
REMARK   42  A    between atoms: _100  and  _102
REMARK   43  A    between atoms: _102  and  _103
REMARK   44  A    between atoms: _102  and  _105
REMARK   45  A    between atoms: _105  and  _106
REMARK   46  A    between atoms: _106  and  _107
REMARK   47  A    between atoms: _107  and  _108
REMARK   48  A    between atoms: _108  and  _109
REMARK   49  A    between atoms: _113  and  _115
REMARK   50  A    between atoms: _115  and  _116
REMARK   51  A    between atoms: _115  and  _118
REMARK   52  A    between atoms: _118  and  _119
REMARK   53  A    between atoms: _119  and  _120
REMARK   54  A    between atoms: _122  and  _124
REMARK   55  A    between atoms: _124  and  _125
REMARK   56  A    between atoms: _124  and  _127
REMARK   57  A    between atoms: _127  and  _128
REMARK   58  A    between atoms: _131  and  _133
REMARK   59  A    between atoms: _133  and  _134
REMARK   60  A    between atoms: _136  and  _138
REMARK   61  A    between atoms: _138  and  _139
REMARK   62  A    between atoms: _141  and  _143
REMARK   63  A    between atoms: _143  and  _144
REMARK   64  A    between atoms: _143  and  _146
REMARK   65  A    between atoms: _146  and  _147
REMARK   66  A    between atoms: _150  and  _152
REMARK   67  A    between atoms: _152  and  _153
REMARK   68  A    between atoms: _155  and  _157
REMARK   69  A    between atoms: _157  and  _158
REMARK   70  A    between atoms: _160  and  _162
REMARK   71  A    between atoms: _162  and  _163
REMARK   72  A    between atoms: _162  and  _165
REMARK   73  A    between atoms: _165  and  _166
REMARK   74  A    between atoms: _169  and  _171
REMARK   75  A    between atoms: _171  and  _172
REMARK   76  A    between atoms: _171  and  _174
REMARK   77  A    between atoms: _174  and  _175
REMARK   78  A    between atoms: _178  and  _180
REMARK   79  A    between atoms: _180  and  _181
REMARK   80  A    between atoms: _180  and  _183
REMARK   81  A    between atoms: _183  and  _184
REMARK   82  A    between atoms: _188  and  _189
REMARK   83  A    between atoms: _194  and  _196
REMARK   84  A    between atoms: _196  and  _197
REMARK   85  A    between atoms: _196  and  _199
REMARK   86  A    between atoms: _202  and  _204
REMARK   87  A    between atoms: _204  and  _205
REMARK   88  A    between atoms: _204  and  _207
REMARK   89  A    between atoms: _207  and  _208
REMARK   90  A    between atoms: _213  and  _215
REMARK   91  A    between atoms: _215  and  _216
REMARK   92  A    between atoms: _215  and  _218
REMARK   93  A    between atoms: _218  and  _219
REMARK   94  A    between atoms: _222  and  _224
REMARK   95  A    between atoms: _224  and  _225
REMARK   96  A    between atoms: _224  and  _227
REMARK   97  A    between atoms: _227  and  _228
REMARK   98  A    between atoms: _231  and  _233
REMARK   99  A    between atoms: _233  and  _234
REMARK  100  A    between atoms: _236  and  _238
REMARK  101  A    between atoms: _238  and  _239
REMARK  102  A    between atoms: _238  and  _241
REMARK  103  A    between atoms: _241  and  _242
REMARK  104  A    between atoms: _242  and  _243
REMARK  105  A    between atoms: _243  and  _244
REMARK  106  A    between atoms: _253  and  _255
REMARK  107  A    between atoms: _255  and  _256
REMARK  108  A    between atoms: _255  and  _258
REMARK  109  A    between atoms: _258  and  _259
REMARK  110  A    between atoms: _264  and  _266
REMARK  111  A    between atoms: _266  and  _267
REMARK  112  A    between atoms: _266  and  _269
REMARK  113  A    between atoms: _269  and  _270
REMARK  114  A    between atoms: _270  and  _271
REMARK  115  A    between atoms: _271  and  _272
REMARK  116  A    between atoms: _281  and  _283
REMARK  117  A    between atoms: _283  and  _284
REMARK  118  A    between atoms: _283  and  _286
REMARK  119  A    between atoms: _286  and  _287
REMARK  120  A    between atoms: _290  and  _292
REMARK  121  A    between atoms: _292  and  _293
REMARK  122  A    between atoms: _292  and  _295
REMARK  123  A    between atoms: _295  and  _296
REMARK  124  A    between atoms: _299  and  _301
REMARK  125  A    between atoms: _301  and  _302
REMARK  126  A    between atoms: _301  and  _304
REMARK  127  A    between atoms: _304  and  _305
REMARK  128  A    between atoms: _308  and  _310
REMARK  129  A    between atoms: _310  and  _311
REMARK  130  A    between atoms: _310  and  _313
REMARK  131  A    between atoms: _313  and  _314
REMARK  132  A    between atoms: _317  and  _319
REMARK  133  A    between atoms: _319  and  _320
REMARK  134  A    between atoms: _322  and  _324
REMARK  135  A    between atoms: _324  and  _325
REMARK  136  A    between atoms: _328  and  _330
REMARK  137  A    between atoms: _330  and  _331
REMARK  138  A    between atoms: _330  and  _333
REMARK  139  A    between atoms: _333  and  _334
REMARK  140  A    between atoms: _337  and  _339
REMARK  141  A    between atoms: _339  and  _340
REMARK  142  A    between atoms: _339  and  _342
REMARK  143  A    between atoms: _342  and  _343
REMARK  144  A    between atoms: _346  and  _348
REMARK  145  A    between atoms: _348  and  _349
REMARK  146  A    between atoms: _348  and  _351
REMARK  147  A    between atoms: _351  and  _352
REMARK  148  A    between atoms: _355  and  _357
REMARK  149  A    between atoms: _357  and  _358
REMARK  150  A    between atoms: _357  and  _360
REMARK  151  A    between atoms: _363  and  _365
REMARK  152  A    between atoms: _365  and  _366
REMARK  153  A    between atoms: _365  and  _368
REMARK  154  A    between atoms: _368  and  _369
REMARK  155  A    between atoms: _369  and  _370
REMARK  156  A    between atoms: _370  and  _371
REMARK  157  A    between atoms: _371  and  _372
REMARK  158  A    between atoms: _376  and  _378
REMARK  159  A    between atoms: _378  and  _379
REMARK  160  A    between atoms: _378  and  _381
REMARK  161  A    between atoms: _381  and  _382
REMARK  162  A    between atoms: _385  and  _387
REMARK  163  A    between atoms: _387  and  _388
REMARK  164  A    between atoms: _390  and  _392
REMARK  165  A    between atoms: _392  and  _393
REMARK  166  A    between atoms: _395  and  _397
REMARK  167  A    between atoms: _397  and  _398
REMARK  168  A    between atoms: _397  and  _400
REMARK  169  A    between atoms: _400  and  _401
REMARK  170  A    between atoms: _404  and  _406
REMARK  171  A    between atoms: _406  and  _407
REMARK  172  A    between atoms: _409  and  _411
REMARK  173  A    between atoms: _411  and  _412
REMARK  174  A    between atoms: _414  and  _416
REMARK  175  A    between atoms: _416  and  _417
REMARK  176  A    between atoms: _416  and  _419
REMARK  177  A    between atoms: _419  and  _420
REMARK  178  A    between atoms: _423  and  _425
REMARK  179  A    between atoms: _425  and  _426
REMARK  180  A    between atoms: _425  and  _428
REMARK  181  A    between atoms: _428  and  _429
REMARK  182  A    between atoms: _433  and  _434
REMARK  183  A    between atoms: _439  and  _441
REMARK  184  A    between atoms: _441  and  _442
REMARK  185  A    between atoms: _441  and  _444
REMARK  186  A    between atoms: _444  and  _445
REMARK  187  A    between atoms: _449  and  _450
REMARK  188  A    between atoms: _455  and  _457
REMARK  189  A    between atoms: _457  and  _458
REMARK  190  A    between atoms: _457  and  _460
REMARK  191  A    between atoms: _463  and  _465
REMARK  192  A    between atoms: _465  and  _466
REMARK  193  A    between atoms: _465  and  _468
REMARK  194  A    between atoms: _468  and  _469
REMARK  195  A    between atoms: _474  and  _476
REMARK  196  A    between atoms: _476  and  _477
REMARK  197  A    between atoms: _476  and  _479
REMARK  198  A    between atoms: _479  and  _480
REMARK  199  A    between atoms: _483  and  _485
REMARK  200  A    between atoms: _485  and  _486
REMARK  201  A    between atoms: _485  and  _488
REMARK  202  A    between atoms: _488  and  _489
REMARK  203  A    between atoms: _492  and  _494
REMARK  204  A    between atoms: _494  and  _495
REMARK  205  A    between atoms: _497  and  _499
REMARK  206  A    between atoms: _499  and  _500
REMARK  207  A    between atoms: _499  and  _502
REMARK  208  A    between atoms: _502  and  _503
REMARK  209  A    between atoms: _503  and  _504
REMARK  210  A    between atoms: _504  and  _505
REMARK  211  A    between atoms: _514  and  _516
REMARK  212  A    between atoms: _516  and  _517
REMARK  213  A    between atoms: _516  and  _519
REMARK  214  A    between atoms: _519  and  _520
REMARK                            x       y       z     vdW  Elec       q    Type
REMARK                         _______ _______ _______ _____ _____    ______ ____
ROOT
ATOM      1  O   HOH     1       8.965  23.543  20.629  0.00  0.00    +0.000 OA
ENDROOT
TORSDOF 0
REMARK  Name = ../refined-set-2016/1hpv/1hpv_pocket.pdb
REMARK  214 active torsions:
REMARK  status: ('A' for Active; 'I' for Inactive)
REMARK    1  A    between atoms: _1  and  _3
REMARK    2  A    between atoms: _3  and  _4
REMARK    3  A    between atoms: _3  and  _6
REMARK    4  A    between atoms: _6  and  _7
REMARK    5  A    between atoms: _7  and  _8
REMARK    6  A    between atoms: _8  and  _9
REMARK    7  A    between atoms: _18  and  _20
REMARK    8  A    between atoms: _20  and  _21
REMARK    9  A    between atoms: _20  and  _23
REMARK   10  A    between atoms: _23  and  _24
REMARK   11  A    between atoms: _27  and  _29
REMARK   12  A    between atoms: _29  and  _30
REMARK   13  A    between atoms: _29  and  _32
REMARK   14  A    between atoms: _32  and  _33
REMARK   15  A    between atoms: _36  and  _38
REMARK   16  A    between atoms: _38  and  _39
REMARK   17  A    between atoms: _38  and  _41
REMARK   18  A    between atoms: _41  and  _42
REMARK   19  A    between atoms: _45  and  _47
REMARK   20  A    between atoms: _47  and  _48
REMARK   21  A    between atoms: _47  and  _50
REMARK   22  A    between atoms: _50  and  _51
REMARK   23  A    between atoms: _54  and  _56
REMARK   24  A    between atoms: _56  and  _57
REMARK   25  A    between atoms: _59  and  _61
REMARK   26  A    between atoms: _61  and  _62
REMARK   27  A    between atoms: _65  and  _67
REMARK   28  A    between atoms: _67  and  _68
REMARK   29  A    between atoms: _67  and  _70
REMARK   30  A    between atoms: _70  and  _71
REMARK   31  A    between atoms: _74  and  _76
REMARK   32  A    between atoms: _76  and  _77
REMARK   33  A    between atoms: _76  and  _79
REMARK   34  A    between atoms: _79  and  _80
REMARK   35  A    between atoms: _83  and  _85
REMARK   36  A    between atoms: _85  and  _86
REMARK   37  A    between atoms: _85  and  _88
REMARK   38  A    between atoms: _88  and  _89
REMARK   39  A    between atoms: _92  and  _94
REMARK   40  A    between atoms: _94  and  _95
REMARK   41  A    between atoms: _94  and  _97
REMARK   42  A    between atoms: _100  and  _102
REMARK   43  A    between atoms: _102  and  _103
REMARK   44  A    between atoms: _102  and  _105
REMARK   45  A    between atoms: _105  and  _106
REMARK   46  A    between atoms: _106  and  _107
REMARK   47  A    between atoms: _107  and  _108
REMARK   48  A    between atoms: _108  and  _109
REMARK   49  A    between atoms: _113  and  _115
REMARK   50  A    between atoms: _115  and  _116
REMARK   51  A    between atoms: _115  and  _118
REMARK   52  A    between atoms: _118  and  _119
REMARK   53  A    between atoms: _119  and  _120
REMARK   54  A    between atoms: _122  and  _124
REMARK   55  A    between atoms: _124  and  _125
REMARK   56  A    between atoms: _124  and  _127
REMARK   57  A    between atoms: _127  and  _128
REMARK   58  A    between atoms: _131  and  _133
REMARK   59  A    between atoms: _133  and  _134
REMARK   60  A    between atoms: _136  and  _138
REMARK   61  A    between atoms: _138  and  _139
REMARK   62  A    between atoms: _141  and  _143
REMARK   63  A    between atoms: _143  and  _144
REMARK   64  A    between atoms: _143  and  _146
REMARK   65  A    between atoms: _146  and  _147
REMARK   66  A    between atoms: _150  and  _152
REMARK   67  A    between atoms: _152  and  _153
REMARK   68  A    between atoms: _155  and  _157
REMARK   69  A    between atoms: _157  and  _158
REMARK   70  A    between atoms: _160  and  _162
REMARK   71  A    between atoms: _162  and  _163
REMARK   72  A    between atoms: _162  and  _165
REMARK   73  A    between atoms: _165  and  _166
REMARK   74  A    between atoms: _169  and  _171
REMARK   75  A    between atoms: _171  and  _172
REMARK   76  A    between atoms: _171  and  _174
REMARK   77  A    between atoms: _174  and  _175
REMARK   78  A    between atoms: _178  and  _180
REMARK   79  A    between atoms: _180  and  _181
REMARK   80  A    between atoms: _180  and  _183
REMARK   81  A    between atoms: _183  and  _184
REMARK   82  A    between atoms: _188  and  _189
REMARK   83  A    between atoms: _194  and  _196
REMARK   84  A    between atoms: _196  and  _197
REMARK   85  A    between atoms: _196  and  _199
REMARK   86  A    between atoms: _202  and  _204
REMARK   87  A    between atoms: _204  and  _205
REMARK   88  A    between atoms: _204  and  _207
REMARK   89  A    between atoms: _207  and  _208
REMARK   90  A    between atoms: _213  and  _215
REMARK   91  A    between atoms: _215  and  _216
REMARK   92  A    between atoms: _215  and  _218
REMARK   93  A    between atoms: _218  and  _219
REMARK   94  A    between atoms: _222  and  _224
REMARK   95  A    between atoms: _224  and  _225
REMARK   96  A    between atoms: _224  and  _227
REMARK   97  A    between atoms: _227  and  _228
REMARK   98  A    between atoms: _231  and  _233
REMARK   99  A    between atoms: _233  and  _234
REMARK  100  A    between atoms: _236  and  _238
REMARK  101  A    between atoms: _238  and  _239
REMARK  102  A    between atoms: _238  and  _241
REMARK  103  A    between atoms: _241  and  _242
REMARK  104  A    between atoms: _242  and  _243
REMARK  105  A    between atoms: _243  and  _244
REMARK  106  A    between atoms: _253  and  _255
REMARK  107  A    between atoms: _255  and  _256
REMARK  108  A    between atoms: _255  and  _258
REMARK  109  A    between atoms: _258  and  _259
REMARK  110  A    between atoms: _264  and  _266
REMARK  111  A    between atoms: _266  and  _267
REMARK  112  A    between atoms: _266  and  _269
REMARK  113  A    between atoms: _269  and  _270
REMARK  114  A    between atoms: _270  and  _271
REMARK  115  A    between atoms: _271  and  _272
REMARK  116  A    between atoms: _281  and  _283
REMARK  117  A    between atoms: _283  and  _284
REMARK  118  A    between atoms: _283  and  _286
REMARK  119  A    between atoms: _286  and  _287
REMARK  120  A    between atoms: _290  and  _292
REMARK  121  A    between atoms: _292  and  _293
REMARK  122  A    between atoms: _292  and  _295
REMARK  123  A    between atoms: _295  and  _296
REMARK  124  A    between atoms: _299  and  _301
REMARK  125  A    between atoms: _301  and  _302
REMARK  126  A    between atoms: _301  and  _304
REMARK  127  A    between atoms: _304  and  _305
REMARK  128  A    between atoms: _308  and  _310
REMARK  129  A    between atoms: _310  and  _311
REMARK  130  A    between atoms: _310  and  _313
REMARK  131  A    between atoms: _313  and  _314
REMARK  132  A    between atoms: _317  and  _319
REMARK  133  A    between atoms: _319  and  _320
REMARK  134  A    between atoms: _322  and  _324
REMARK  135  A    between atoms: _324  and  _325
REMARK  136  A    between atoms: _328  and  _330
REMARK  137  A    between atoms: _330  and  _331
REMARK  138  A    between atoms: _330  and  _333
REMARK  139  A    between atoms: _333  and  _334
REMARK  140  A    between atoms: _337  and  _339
REMARK  141  A    between atoms: _339  and  _340
REMARK  142  A    between atoms: _339  and  _342
REMARK  143  A    between atoms: _342  and  _343
REMARK  144  A    between atoms: _346  and  _348
REMARK  145  A    between atoms: _348  and  _349
REMARK  146  A    between atoms: _348  and  _351
REMARK  147  A    between atoms: _351  and  _352
REMARK  148  A    between atoms: _355  and  _357
REMARK  149  A    between atoms: _357  and  _358
REMARK  150  A    between atoms: _357  and  _360
REMARK  151  A    between atoms: _363  and  _365
REMARK  152  A    between atoms: _365  and  _366
REMARK  153  A    between atoms: _365  and  _368
REMARK  154  A    between atoms: _368  and  _369
REMARK  155  A    between atoms: _369  and  _370
REMARK  156  A    between atoms: _370  and  _371
REMARK  157  A    between atoms: _371  and  _372
REMARK  158  A    between atoms: _376  and  _378
REMARK  159  A    between atoms: _378  and  _379
REMARK  160  A    between atoms: _378  and  _381
REMARK  161  A    between atoms: _381  and  _382
REMARK  162  A    between atoms: _385  and  _387
REMARK  163  A    between atoms: _387  and  _388
REMARK  164  A    between atoms: _390  and  _392
REMARK  165  A    between atoms: _392  and  _393
REMARK  166  A    between atoms: _395  and  _397
REMARK  167  A    between atoms: _397  and  _398
REMARK  168  A    between atoms: _397  and  _400
REMARK  169  A    between atoms: _400  and  _401
REMARK  170  A    between atoms: _404  and  _406
REMARK  171  A    between atoms: _406  and  _407
REMARK  172  A    between atoms: _409  and  _411
REMARK  173  A    between atoms: _411  and  _412
REMARK  174  A    between atoms: _414  and  _416
REMARK  175  A    between atoms: _416  and  _417
REMARK  176  A    between atoms: _416  and  _419
REMARK  177  A    between atoms: _419  and  _420
REMARK  178  A    between atoms: _423  and  _425
REMARK  179  A    between atoms: _425  and  _426
REMARK  180  A    between atoms: _425  and  _428
REMARK  181  A    between atoms: _428  and  _429
REMARK  182  A    between atoms: _433  and  _434
REMARK  183  A    between atoms: _439  and  _441
REMARK  184  A    between atoms: _441  and  _442
REMARK  185  A    between atoms: _441  and  _444
REMARK  186  A    between atoms: _444  and  _445
REMARK  187  A    between atoms: _449  and  _450
REMARK  188  A    between atoms: _455  and  _457
REMARK  189  A    between atoms: _457  and  _458
REMARK  190  A    between atoms: _457  and  _460
REMARK  191  A    between atoms: _463  and  _465
REMARK  192  A    between atoms: _465  and  _466
REMARK  193  A    between atoms: _465  and  _468
REMARK  194  A    between atoms: _468  and  _469
REMARK  195  A    between atoms: _474  and  _476
REMARK  196  A    between atoms: _476  and  _477
REMARK  197  A    between atoms: _476  and  _479
REMARK  198  A    between atoms: _479  and  _480
REMARK  199  A    between atoms: _483  and  _485
REMARK  200  A    between atoms: _485  and  _486
REMARK  201  A    between atoms: _485  and  _488
REMARK  202  A    between atoms: _488  and  _489
REMARK  203  A    between atoms: _492  and  _494
REMARK  204  A    between atoms: _494  and  _495
REMARK  205  A    between atoms: _497  and  _499
REMARK  206  A    between atoms: _499  and  _500
REMARK  207  A    between atoms: _499  and  _502
REMARK  208  A    between atoms: _502  and  _503
REMARK  209  A    between atoms: _503  and  _504
REMARK  210  A    between atoms: _504  and  _505
REMARK  211  A    between atoms: _514  and  _516
REMARK  212  A    between atoms: _516  and  _517
REMARK  213  A    between atoms: _516  and  _519
REMARK  214  A    between atoms: _519  and  _520
REMARK                            x       y       z     vdW  Elec       q    Type
REMARK                         _______ _______ _______ _____ _____    ______ ____
ROOT
ATOM      1  O   HOH     1      19.935  11.304   5.690  0.00  0.00    +0.000 OA
ENDROOT
TORSDOF 0
REMARK  Name = ../refined-set-2016/1hpv/1hpv_pocket.pdb
REMARK  214 active torsions:
REMARK  status: ('A' for Active; 'I' for Inactive)
REMARK    1  A    between atoms: _1  and  _3
REMARK    2  A    between atoms: _3  and  _4
REMARK    3  A    between atoms: _3  and  _6
REMARK    4  A    between atoms: _6  and  _7
REMARK    5  A    between atoms: _7  and  _8
REMARK    6  A    between atoms: _8  and  _9
REMARK    7  A    between atoms: _18  and  _20
REMARK    8  A    between atoms: _20  and  _21
REMARK    9  A    between atoms: _20  and  _23
REMARK   10  A    between atoms: _23  and  _24
REMARK   11  A    between atoms: _27  and  _29
REMARK   12  A    between atoms: _29  and  _30
REMARK   13  A    between atoms: _29  and  _32
REMARK   14  A    between atoms: _32  and  _33
REMARK   15  A    between atoms: _36  and  _38
REMARK   16  A    between atoms: _38  and  _39
REMARK   17  A    between atoms: _38  and  _41
REMARK   18  A    between atoms: _41  and  _42
REMARK   19  A    between atoms: _45  and  _47
REMARK   20  A    between atoms: _47  and  _48
REMARK   21  A    between atoms: _47  and  _50
REMARK   22  A    between atoms: _50  and  _51
REMARK   23  A    between atoms: _54  and  _56
REMARK   24  A    between atoms: _56  and  _57
REMARK   25  A    between atoms: _59  and  _61
REMARK   26  A    between atoms: _61  and  _62
REMARK   27  A    between atoms: _65  and  _67
REMARK   28  A    between atoms: _67  and  _68
REMARK   29  A    between atoms: _67  and  _70
REMARK   30  A    between atoms: _70  and  _71
REMARK   31  A    between atoms: _74  and  _76
REMARK   32  A    between atoms: _76  and  _77
REMARK   33  A    between atoms: _76  and  _79
REMARK   34  A    between atoms: _79  and  _80
REMARK   35  A    between atoms: _83  and  _85
REMARK   36  A    between atoms: _85  and  _86
REMARK   37  A    between atoms: _85  and  _88
REMARK   38  A    between atoms: _88  and  _89
REMARK   39  A    between atoms: _92  and  _94
REMARK   40  A    between atoms: _94  and  _95
REMARK   41  A    between atoms: _94  and  _97
REMARK   42  A    between atoms: _100  and  _102
REMARK   43  A    between atoms: _102  and  _103
REMARK   44  A    between atoms: _102  and  _105
REMARK   45  A    between atoms: _105  and  _106
REMARK   46  A    between atoms: _106  and  _107
REMARK   47  A    between atoms: _107  and  _108
REMARK   48  A    between atoms: _108  and  _109
REMARK   49  A    between atoms: _113  and  _115
REMARK   50  A    between atoms: _115  and  _116
REMARK   51  A    between atoms: _115  and  _118
REMARK   52  A    between atoms: _118  and  _119
REMARK   53  A    between atoms: _119  and  _120
REMARK   54  A    between atoms: _122  and  _124
REMARK   55  A    between atoms: _124  and  _125
REMARK   56  A    between atoms: _124  and  _127
REMARK   57  A    between atoms: _127  and  _128
REMARK   58  A    between atoms: _131  and  _133
REMARK   59  A    between atoms: _133  and  _134
REMARK   60  A    between atoms: _136  and  _138
REMARK   61  A    between atoms: _138  and  _139
REMARK   62  A    between atoms: _141  and  _143
REMARK   63  A    between atoms: _143  and  _144
REMARK   64  A    between atoms: _143  and  _146
REMARK   65  A    between atoms: _146  and  _147
REMARK   66  A    between atoms: _150  and  _152
REMARK   67  A    between atoms: _152  and  _153
REMARK   68  A    between atoms: _155  and  _157
REMARK   69  A    between atoms: _157  and  _158
REMARK   70  A    between atoms: _160  and  _162
REMARK   71  A    between atoms: _162  and  _163
REMARK   72  A    between atoms: _162  and  _165
REMARK   73  A    between atoms: _165  and  _166
REMARK   74  A    between atoms: _169  and  _171
REMARK   75  A    between atoms: _171  and  _172
REMARK   76  A    between atoms: _171  and  _174
REMARK   77  A    between atoms: _174  and  _175
REMARK   78  A    between atoms: _178  and  _180
REMARK   79  A    between atoms: _180  and  _181
REMARK   80  A    between atoms: _180  and  _183
REMARK   81  A    between atoms: _183  and  _184
REMARK   82  A    between atoms: _188  and  _189
REMARK   83  A    between atoms: _194  and  _196
REMARK   84  A    between atoms: _196  and  _197
REMARK   85  A    between atoms: _196  and  _199
REMARK   86  A    between atoms: _202  and  _204
REMARK   87  A    between atoms: _204  and  _205
REMARK   88  A    between atoms: _204  and  _207
REMARK   89  A    between atoms: _207  and  _208
REMARK   90  A    between atoms: _213  and  _215
REMARK   91  A    between atoms: _215  and  _216
REMARK   92  A    between atoms: _215  and  _218
REMARK   93  A    between atoms: _218  and  _219
REMARK   94  A    between atoms: _222  and  _224
REMARK   95  A    between atoms: _224  and  _225
REMARK   96  A    between atoms: _224  and  _227
REMARK   97  A    between atoms: _227  and  _228
REMARK   98  A    between atoms: _231  and  _233
REMARK   99  A    between atoms: _233  and  _234
REMARK  100  A    between atoms: _236  and  _238
REMARK  101  A    between atoms: _238  and  _239
REMARK  102  A    between atoms: _238  and  _241
REMARK  103  A    between atoms: _241  and  _242
REMARK  104  A    between atoms: _242  and  _243
REMARK  105  A    between atoms: _243  and  _244
REMARK  106  A    between atoms: _253  and  _255
REMARK  107  A    between atoms: _255  and  _256
REMARK  108  A    between atoms: _255  and  _258
REMARK  109  A    between atoms: _258  and  _259
REMARK  110  A    between atoms: _264  and  _266
REMARK  111  A    between atoms: _266  and  _267
REMARK  112  A    between atoms: _266  and  _269
REMARK  113  A    between atoms: _269  and  _270
REMARK  114  A    between atoms: _270  and  _271
REMARK  115  A    between atoms: _271  and  _272
REMARK  116  A    between atoms: _281  and  _283
REMARK  117  A    between atoms: _283  and  _284
REMARK  118  A    between atoms: _283  and  _286
REMARK  119  A    between atoms: _286  and  _287
REMARK  120  A    between atoms: _290  and  _292
REMARK  121  A    between atoms: _292  and  _293
REMARK  122  A    between atoms: _292  and  _295
REMARK  123  A    between atoms: _295  and  _296
REMARK  124  A    between atoms: _299  and  _301
REMARK  125  A    between atoms: _301  and  _302
REMARK  126  A    between atoms: _301  and  _304
REMARK  127  A    between atoms: _304  and  _305
REMARK  128  A    between atoms: _308  and  _310
REMARK  129  A    between atoms: _310  and  _311
REMARK  130  A    between atoms: _310  and  _313
REMARK  131  A    between atoms: _313  and  _314
REMARK  132  A    between atoms: _317  and  _319
REMARK  133  A    between atoms: _319  and  _320
REMARK  134  A    between atoms: _322  and  _324
REMARK  135  A    between atoms: _324  and  _325
REMARK  136  A    between atoms: _328  and  _330
REMARK  137  A    between atoms: _330  and  _331
REMARK  138  A    between atoms: _330  and  _333
REMARK  139  A    between atoms: _333  and  _334
REMARK  140  A    between atoms: _337  and  _339
REMARK  141  A    between atoms: _339  and  _340
REMARK  142  A    between atoms: _339  and  _342
REMARK  143  A    between atoms: _342  and  _343
REMARK  144  A    between atoms: _346  and  _348
REMARK  145  A    between atoms: _348  and  _349
REMARK  146  A    between atoms: _348  and  _351
REMARK  147  A    between atoms: _351  and  _352
REMARK  148  A    between atoms: _355  and  _357
REMARK  149  A    between atoms: _357  and  _358
REMARK  150  A    between atoms: _357  and  _360
REMARK  151  A    between atoms: _363  and  _365
REMARK  152  A    between atoms: _365  and  _366
REMARK  153  A    between atoms: _365  and  _368
REMARK  154  A    between atoms: _368  and  _369
REMARK  155  A    between atoms: _369  and  _370
REMARK  156  A    between atoms: _370  and  _371
REMARK  157  A    between atoms: _371  and  _372
REMARK  158  A    between atoms: _376  and  _378
REMARK  159  A    between atoms: _378  and  _379
REMARK  160  A    between atoms: _378  and  _381
REMARK  161  A    between atoms: _381  and  _382
REMARK  162  A    between atoms: _385  and  _387
REMARK  163  A    between atoms: _387  and  _388
REMARK  164  A    between atoms: _390  and  _392
REMARK  165  A    between atoms: _392  and  _393
REMARK  166  A    between atoms: _395  and  _397
REMARK  167  A    between atoms: _397  and  _398
REMARK  168  A    between atoms: _397  and  _400
REMARK  169  A    between atoms: _400  and  _401
REMARK  170  A    between atoms: _404  and  _406
REMARK  171  A    between atoms: _406  and  _407
REMARK  172  A    between atoms: _409  and  _411
REMARK  173  A    between atoms: _411  and  _412
REMARK  174  A    between atoms: _414  and  _416
REMARK  175  A    between atoms: _416  and  _417
REMARK  176  A    between atoms: _416  and  _419
REMARK  177  A    between atoms: _419  and  _420
REMARK  178  A    between atoms: _423  and  _425
REMARK  179  A    between atoms: _425  and  _426
REMARK  180  A    between atoms: _425  and  _428
REMARK  181  A    between atoms: _428  and  _429
REMARK  182  A    between atoms: _433  and  _434
REMARK  183  A    between atoms: _439  and  _441
REMARK  184  A    between atoms: _441  and  _442
REMARK  185  A    between atoms: _441  and  _444
REMARK  186  A    between atoms: _444  and  _445
REMARK  187  A    between atoms: _449  and  _450
REMARK  188  A    between atoms: _455  and  _457
REMARK  189  A    between atoms: _457  and  _458
REMARK  190  A    between atoms: _457  and  _460
REMARK  191  A    between atoms: _463  and  _465
REMARK  192  A    between atoms: _465  and  _466
REMARK  193  A    between atoms: _465  and  _468
REMARK  194  A    between atoms: _468  and  _469
REMARK  195  A    between atoms: _474  and  _476
REMARK  196  A    between atoms: _476  and  _477
REMARK  197  A    between atoms: _476  and  _479
REMARK  198  A    between atoms: _479  and  _480
REMARK  199  A    between atoms: _483  and  _485
REMARK  200  A    between atoms: _485  and  _486
REMARK  201  A    between atoms: _485  and  _488
REMARK  202  A    between atoms: _488  and  _489
REMARK  203  A    between atoms: _492  and  _494
REMARK  204  A    between atoms: _494  and  _495
REMARK  205  A    between atoms: _497  and  _499
REMARK  206  A    between atoms: _499  and  _500
REMARK  207  A    between atoms: _499  and  _502
REMARK  208  A    between atoms: _502  and  _503
REMARK  209  A    between atoms: _503  and  _504
REMARK  210  A    between atoms: _504  and  _505
REMARK  211  A    between atoms: _514  and  _516
REMARK  212  A    between atoms: _516  and  _517
REMARK  213  A    between atoms: _516  and  _519
REMARK  214  A    between atoms: _519  and  _520
REMARK                            x       y       z     vdW  Elec       q    Type
REMARK                         _______ _______ _______ _____ _____    ______ ____
ROOT
ATOM      1  O   HOH     1       8.151  24.325  13.560  0.00  0.00    +0.000 OA
ENDROOT
TORSDOF 0
REMARK  Name = ../refined-set-2016/1hpv/1hpv_pocket.pdb
REMARK  214 active torsions:
REMARK  status: ('A' for Active; 'I' for Inactive)
REMARK    1  A    between atoms: _1  and  _3
REMARK    2  A    between atoms: _3  and  _4
REMARK    3  A    between atoms: _3  and  _6
REMARK    4  A    between atoms: _6  and  _7
REMARK    5  A    between atoms: _7  and  _8
REMARK    6  A    between atoms: _8  and  _9
REMARK    7  A    between atoms: _18  and  _20
REMARK    8  A    between atoms: _20  and  _21
REMARK    9  A    between atoms: _20  and  _23
REMARK   10  A    between atoms: _23  and  _24
REMARK   11  A    between atoms: _27  and  _29
REMARK   12  A    between atoms: _29  and  _30
REMARK   13  A    between atoms: _29  and  _32
REMARK   14  A    between atoms: _32  and  _33
REMARK   15  A    between atoms: _36  and  _38
REMARK   16  A    between atoms: _38  and  _39
REMARK   17  A    between atoms: _38  and  _41
REMARK   18  A    between atoms: _41  and  _42
REMARK   19  A    between atoms: _45  and  _47
REMARK   20  A    between atoms: _47  and  _48
REMARK   21  A    between atoms: _47  and  _50
REMARK   22  A    between atoms: _50  and  _51
REMARK   23  A    between atoms: _54  and  _56
REMARK   24  A    between atoms: _56  and  _57
REMARK   25  A    between atoms: _59  and  _61
REMARK   26  A    between atoms: _61  and  _62
REMARK   27  A    between atoms: _65  and  _67
REMARK   28  A    between atoms: _67  and  _68
REMARK   29  A    between atoms: _67  and  _70
REMARK   30  A    between atoms: _70  and  _71
REMARK   31  A    between atoms: _74  and  _76
REMARK   32  A    between atoms: _76  and  _77
REMARK   33  A    between atoms: _76  and  _79
REMARK   34  A    between atoms: _79  and  _80
REMARK   35  A    between atoms: _83  and  _85
REMARK   36  A    between atoms: _85  and  _86
REMARK   37  A    between atoms: _85  and  _88
REMARK   38  A    between atoms: _88  and  _89
REMARK   39  A    between atoms: _92  and  _94
REMARK   40  A    between atoms: _94  and  _95
REMARK   41  A    between atoms: _94  and  _97
REMARK   42  A    between atoms: _100  and  _102
REMARK   43  A    between atoms: _102  and  _103
REMARK   44  A    between atoms: _102  and  _105
REMARK   45  A    between atoms: _105  and  _106
REMARK   46  A    between atoms: _106  and  _107
REMARK   47  A    between atoms: _107  and  _108
REMARK   48  A    between atoms: _108  and  _109
REMARK   49  A    between atoms: _113  and  _115
REMARK   50  A    between atoms: _115  and  _116
REMARK   51  A    between atoms: _115  and  _118
REMARK   52  A    between atoms: _118  and  _119
REMARK   53  A    between atoms: _119  and  _120
REMARK   54  A    between atoms: _122  and  _124
REMARK   55  A    between atoms: _124  and  _125
REMARK   56  A    between atoms: _124  and  _127
REMARK   57  A    between atoms: _127  and  _128
REMARK   58  A    between atoms: _131  and  _133
REMARK   59  A    between atoms: _133  and  _134
REMARK   60  A    between atoms: _136  and  _138
REMARK   61  A    between atoms: _138  and  _139
REMARK   62  A    between atoms: _141  and  _143
REMARK   63  A    between atoms: _143  and  _144
REMARK   64  A    between atoms: _143  and  _146
REMARK   65  A    between atoms: _146  and  _147
REMARK   66  A    between atoms: _150  and  _152
REMARK   67  A    between atoms: _152  and  _153
REMARK   68  A    between atoms: _155  and  _157
REMARK   69  A    between atoms: _157  and  _158
REMARK   70  A    between atoms: _160  and  _162
REMARK   71  A    between atoms: _162  and  _163
REMARK   72  A    between atoms: _162  and  _165
REMARK   73  A    between atoms: _165  and  _166
REMARK   74  A    between atoms: _169  and  _171
REMARK   75  A    between atoms: _171  and  _172
REMARK   76  A    between atoms: _171  and  _174
REMARK   77  A    between atoms: _174  and  _175
REMARK   78  A    between atoms: _178  and  _180
REMARK   79  A    between atoms: _180  and  _181
REMARK   80  A    between atoms: _180  and  _183
REMARK   81  A    between atoms: _183  and  _184
REMARK   82  A    between atoms: _188  and  _189
REMARK   83  A    between atoms: _194  and  _196
REMARK   84  A    between atoms: _196  and  _197
REMARK   85  A    between atoms: _196  and  _199
REMARK   86  A    between atoms: _202  and  _204
REMARK   87  A    between atoms: _204  and  _205
REMARK   88  A    between atoms: _204  and  _207
REMARK   89  A    between atoms: _207  and  _208
REMARK   90  A    between atoms: _213  and  _215
REMARK   91  A    between atoms: _215  and  _216
REMARK   92  A    between atoms: _215  and  _218
REMARK   93  A    between atoms: _218  and  _219
REMARK   94  A    between atoms: _222  and  _224
REMARK   95  A    between atoms: _224  and  _225
REMARK   96  A    between atoms: _224  and  _227
REMARK   97  A    between atoms: _227  and  _228
REMARK   98  A    between atoms: _231  and  _233
REMARK   99  A    between atoms: _233  and  _234
REMARK  100  A    between atoms: _236  and  _238
REMARK  101  A    between atoms: _238  and  _239
REMARK  102  A    between atoms: _238  and  _241
REMARK  103  A    between atoms: _241  and  _242
REMARK  104  A    between atoms: _242  and  _243
REMARK  105  A    between atoms: _243  and  _244
REMARK  106  A    between atoms: _253  and  _255
REMARK  107  A    between atoms: _255  and  _256
REMARK  108  A    between atoms: _255  and  _258
REMARK  109  A    between atoms: _258  and  _259
REMARK  110  A    between atoms: _264  and  _266
REMARK  111  A    between atoms: _266  and  _267
REMARK  112  A    between atoms: _266  and  _269
REMARK  113  A    between atoms: _269  and  _270
REMARK  114  A    between atoms: _270  and  _271
REMARK  115  A    between atoms: _271  and  _272
REMARK  116  A    between atoms: _281  and  _283
REMARK  117  A    between atoms: _283  and  _284
REMARK  118  A    between atoms: _283  and  _286
REMARK  119  A    between atoms: _286  and  _287
REMARK  120  A    between atoms: _290  and  _292
REMARK  121  A    between atoms: _292  and  _293
REMARK  122  A    between atoms: _292  and  _295
REMARK  123  A    between atoms: _295  and  _296
REMARK  124  A    between atoms: _299  and  _301
REMARK  125  A    between atoms: _301  and  _302
REMARK  126  A    between atoms: _301  and  _304
REMARK  127  A    between atoms: _304  and  _305
REMARK  128  A    between atoms: _308  and  _310
REMARK  129  A    between atoms: _310  and  _311
REMARK  130  A    between atoms: _310  and  _313
REMARK  131  A    between atoms: _313  and  _314
REMARK  132  A    between atoms: _317  and  _319
REMARK  133  A    between atoms: _319  and  _320
REMARK  134  A    between atoms: _322  and  _324
REMARK  135  A    between atoms: _324  and  _325
REMARK  136  A    between atoms: _328  and  _330
REMARK  137  A    between atoms: _330  and  _331
REMARK  138  A    between atoms: _330  and  _333
REMARK  139  A    between atoms: _333  and  _334
REMARK  140  A    between atoms: _337  and  _339
REMARK  141  A    between atoms: _339  and  _340
REMARK  142  A    between atoms: _339  and  _342
REMARK  143  A    between atoms: _342  and  _343
REMARK  144  A    between atoms: _346  and  _348
REMARK  145  A    between atoms: _348  and  _349
REMARK  146  A    between atoms: _348  and  _351
REMARK  147  A    between atoms: _351  and  _352
REMARK  148  A    between atoms: _355  and  _357
REMARK  149  A    between atoms: _357  and  _358
REMARK  150  A    between atoms: _357  and  _360
REMARK  151  A    between atoms: _363  and  _365
REMARK  152  A    between atoms: _365  and  _366
REMARK  153  A    between atoms: _365  and  _368
REMARK  154  A    between atoms: _368  and  _369
REMARK  155  A    between atoms: _369  and  _370
REMARK  156  A    between atoms: _370  and  _371
REMARK  157  A    between atoms: _371  and  _372
REMARK  158  A    between atoms: _376  and  _378
REMARK  159  A    between atoms: _378  and  _379
REMARK  160  A    between atoms: _378  and  _381
REMARK  161  A    between atoms: _381  and  _382
REMARK  162  A    between atoms: _385  and  _387
REMARK  163  A    between atoms: _387  and  _388
REMARK  164  A    between atoms: _390  and  _392
REMARK  165  A    between atoms: _392  and  _393
REMARK  166  A    between atoms: _395  and  _397
REMARK  167  A    between atoms: _397  and  _398
REMARK  168  A    between atoms: _397  and  _400
REMARK  169  A    between atoms: _400  and  _401
REMARK  170  A    between atoms: _404  and  _406
REMARK  171  A    between atoms: _406  and  _407
REMARK  172  A    between atoms: _409  and  _411
REMARK  173  A    between atoms: _411  and  _412
REMARK  174  A    between atoms: _414  and  _416
REMARK  175  A    between atoms: _416  and  _417
REMARK  176  A    between atoms: _416  and  _419
REMARK  177  A    between atoms: _419  and  _420
REMARK  178  A    between atoms: _423  and  _425
REMARK  179  A    between atoms: _425  and  _426
REMARK  180  A    between atoms: _425  and  _428
REMARK  181  A    between atoms: _428  and  _429
REMARK  182  A    between atoms: _433  and  _434
REMARK  183  A    between atoms: _439  and  _441
REMARK  184  A    between atoms: _441  and  _442
REMARK  185  A    between atoms: _441  and  _444
REMARK  186  A    between atoms: _444  and  _445
REMARK  187  A    between atoms: _449  and  _450
REMARK  188  A    between atoms: _455  and  _457
REMARK  189  A    between atoms: _457  and  _458
REMARK  190  A    between atoms: _457  and  _460
REMARK  191  A    between atoms: _463  and  _465
REMARK  192  A    between atoms: _465  and  _466
REMARK  193  A    between atoms: _465  and  _468
REMARK  194  A    between atoms: _468  and  _469
REMARK  195  A    between atoms: _474  and  _476
REMARK  196  A    between atoms: _476  and  _477
REMARK  197  A    between atoms: _476  and  _479
REMARK  198  A    between atoms: _479  and  _480
REMARK  199  A    between atoms: _483  and  _485
REMARK  200  A    between atoms: _485  and  _486
REMARK  201  A    between atoms: _485  and  _488
REMARK  202  A    between atoms: _488  and  _489
REMARK  203  A    between atoms: _492  and  _494
REMARK  204  A    between atoms: _494  and  _495
REMARK  205  A    between atoms: _497  and  _499
REMARK  206  A    between atoms: _499  and  _500
REMARK  207  A    between atoms: _499  and  _502
REMARK  208  A    between atoms: _502  and  _503
REMARK  209  A    between atoms: _503  and  _504
REMARK  210  A    between atoms: _504  and  _505
REMARK  211  A    between atoms: _514  and  _516
REMARK  212  A    between atoms: _516  and  _517
REMARK  213  A    between atoms: _516  and  _519
REMARK  214  A    between atoms: _519  and  _520
REMARK                            x       y       z     vdW  Elec       q    Type
REMARK                         _______ _______ _______ _____ _____    ______ ____
ROOT
ATOM      1  O   HOH     1       9.464  17.948  23.877  0.00  0.00    +0.000 OA
ENDROOT
TORSDOF 0
REMARK  Name = ../refined-set-2016/1hpv/1hpv_pocket.pdb
REMARK  214 active torsions:
REMARK  status: ('A' for Active; 'I' for Inactive)
REMARK    1  A    between atoms: _1  and  _3
REMARK    2  A    between atoms: _3  and  _4
REMARK    3  A    between atoms: _3  and  _6
REMARK    4  A    between atoms: _6  and  _7
REMARK    5  A    between atoms: _7  and  _8
REMARK    6  A    between atoms: _8  and  _9
REMARK    7  A    between atoms: _18  and  _20
REMARK    8  A    between atoms: _20  and  _21
REMARK    9  A    between atoms: _20  and  _23
REMARK   10  A    between atoms: _23  and  _24
REMARK   11  A    between atoms: _27  and  _29
REMARK   12  A    between atoms: _29  and  _30
REMARK   13  A    between atoms: _29  and  _32
REMARK   14  A    between atoms: _32  and  _33
REMARK   15  A    between atoms: _36  and  _38
REMARK   16  A    between atoms: _38  and  _39
REMARK   17  A    between atoms: _38  and  _41
REMARK   18  A    between atoms: _41  and  _42
REMARK   19  A    between atoms: _45  and  _47
REMARK   20  A    between atoms: _47  and  _48
REMARK   21  A    between atoms: _47  and  _50
REMARK   22  A    between atoms: _50  and  _51
REMARK   23  A    between atoms: _54  and  _56
REMARK   24  A    between atoms: _56  and  _57
REMARK   25  A    between atoms: _59  and  _61
REMARK   26  A    between atoms: _61  and  _62
REMARK   27  A    between atoms: _65  and  _67
REMARK   28  A    between atoms: _67  and  _68
REMARK   29  A    between atoms: _67  and  _70
REMARK   30  A    between atoms: _70  and  _71
REMARK   31  A    between atoms: _74  and  _76
REMARK   32  A    between atoms: _76  and  _77
REMARK   33  A    between atoms: _76  and  _79
REMARK   34  A    between atoms: _79  and  _80
REMARK   35  A    between atoms: _83  and  _85
REMARK   36  A    between atoms: _85  and  _86
REMARK   37  A    between atoms: _85  and  _88
REMARK   38  A    between atoms: _88  and  _89
REMARK   39  A    between atoms: _92  and  _94
REMARK   40  A    between atoms: _94  and  _95
REMARK   41  A    between atoms: _94  and  _97
REMARK   42  A    between atoms: _100  and  _102
REMARK   43  A    between atoms: _102  and  _103
REMARK   44  A    between atoms: _102  and  _105
REMARK   45  A    between atoms: _105  and  _106
REMARK   46  A    between atoms: _106  and  _107
REMARK   47  A    between atoms: _107  and  _108
REMARK   48  A    between atoms: _108  and  _109
REMARK   49  A    between atoms: _113  and  _115
REMARK   50  A    between atoms: _115  and  _116
REMARK   51  A    between atoms: _115  and  _118
REMARK   52  A    between atoms: _118  and  _119
REMARK   53  A    between atoms: _119  and  _120
REMARK   54  A    between atoms: _122  and  _124
REMARK   55  A    between atoms: _124  and  _125
REMARK   56  A    between atoms: _124  and  _127
REMARK   57  A    between atoms: _127  and  _128
REMARK   58  A    between atoms: _131  and  _133
REMARK   59  A    between atoms: _133  and  _134
REMARK   60  A    between atoms: _136  and  _138
REMARK   61  A    between atoms: _138  and  _139
REMARK   62  A    between atoms: _141  and  _143
REMARK   63  A    between atoms: _143  and  _144
REMARK   64  A    between atoms: _143  and  _146
REMARK   65  A    between atoms: _146  and  _147
REMARK   66  A    between atoms: _150  and  _152
REMARK   67  A    between atoms: _152  and  _153
REMARK   68  A    between atoms: _155  and  _157
REMARK   69  A    between atoms: _157  and  _158
REMARK   70  A    between atoms: _160  and  _162
REMARK   71  A    between atoms: _162  and  _163
REMARK   72  A    between atoms: _162  and  _165
REMARK   73  A    between atoms: _165  and  _166
REMARK   74  A    between atoms: _169  and  _171
REMARK   75  A    between atoms: _171  and  _172
REMARK   76  A    between atoms: _171  and  _174
REMARK   77  A    between atoms: _174  and  _175
REMARK   78  A    between atoms: _178  and  _180
REMARK   79  A    between atoms: _180  and  _181
REMARK   80  A    between atoms: _180  and  _183
REMARK   81  A    between atoms: _183  and  _184
REMARK   82  A    between atoms: _188  and  _189
REMARK   83  A    between atoms: _194  and  _196
REMARK   84  A    between atoms: _196  and  _197
REMARK   85  A    between atoms: _196  and  _199
REMARK   86  A    between atoms: _202  and  _204
REMARK   87  A    between atoms: _204  and  _205
REMARK   88  A    between atoms: _204  and  _207
REMARK   89  A    between atoms: _207  and  _208
REMARK   90  A    between atoms: _213  and  _215
REMARK   91  A    between atoms: _215  and  _216
REMARK   92  A    between atoms: _215  and  _218
REMARK   93  A    between atoms: _218  and  _219
REMARK   94  A    between atoms: _222  and  _224
REMARK   95  A    between atoms: _224  and  _225
REMARK   96  A    between atoms: _224  and  _227
REMARK   97  A    between atoms: _227  and  _228
REMARK   98  A    between atoms: _231  and  _233
REMARK   99  A    between atoms: _233  and  _234
REMARK  100  A    between atoms: _236  and  _238
REMARK  101  A    between atoms: _238  and  _239
REMARK  102  A    between atoms: _238  and  _241
REMARK  103  A    between atoms: _241  and  _242
REMARK  104  A    between atoms: _242  and  _243
REMARK  105  A    between atoms: _243  and  _244
REMARK  106  A    between atoms: _253  and  _255
REMARK  107  A    between atoms: _255  and  _256
REMARK  108  A    between atoms: _255  and  _258
REMARK  109  A    between atoms: _258  and  _259
REMARK  110  A    between atoms: _264  and  _266
REMARK  111  A    between atoms: _266  and  _267
REMARK  112  A    between atoms: _266  and  _269
REMARK  113  A    between atoms: _269  and  _270
REMARK  114  A    between atoms: _270  and  _271
REMARK  115  A    between atoms: _271  and  _272
REMARK  116  A    between atoms: _281  and  _283
REMARK  117  A    between atoms: _283  and  _284
REMARK  118  A    between atoms: _283  and  _286
REMARK  119  A    between atoms: _286  and  _287
REMARK  120  A    between atoms: _290  and  _292
REMARK  121  A    between atoms: _292  and  _293
REMARK  122  A    between atoms: _292  and  _295
REMARK  123  A    between atoms: _295  and  _296
REMARK  124  A    between atoms: _299  and  _301
REMARK  125  A    between atoms: _301  and  _302
REMARK  126  A    between atoms: _301  and  _304
REMARK  127  A    between atoms: _304  and  _305
REMARK  128  A    between atoms: _308  and  _310
REMARK  129  A    between atoms: _310  and  _311
REMARK  130  A    between atoms: _310  and  _313
REMARK  131  A    between atoms: _313  and  _314
REMARK  132  A    between atoms: _317  and  _319
REMARK  133  A    between atoms: _319  and  _320
REMARK  134  A    between atoms: _322  and  _324
REMARK  135  A    between atoms: _324  and  _325
REMARK  136  A    between atoms: _328  and  _330
REMARK  137  A    between atoms: _330  and  _331
REMARK  138  A    between atoms: _330  and  _333
REMARK  139  A    between atoms: _333  and  _334
REMARK  140  A    between atoms: _337  and  _339
REMARK  141  A    between atoms: _339  and  _340
REMARK  142  A    between atoms: _339  and  _342
REMARK  143  A    between atoms: _342  and  _343
REMARK  144  A    between atoms: _346  and  _348
REMARK  145  A    between atoms: _348  and  _349
REMARK  146  A    between atoms: _348  and  _351
REMARK  147  A    between atoms: _351  and  _352
REMARK  148  A    between atoms: _355  and  _357
REMARK  149  A    between atoms: _357  and  _358
REMARK  150  A    between atoms: _357  and  _360
REMARK  151  A    between atoms: _363  and  _365
REMARK  152  A    between atoms: _365  and  _366
REMARK  153  A    between atoms: _365  and  _368
REMARK  154  A    between atoms: _368  and  _369
REMARK  155  A    between atoms: _369  and  _370
REMARK  156  A    between atoms: _370  and  _371
REMARK  157  A    between atoms: _371  and  _372
REMARK  158  A    between atoms: _376  and  _378
REMARK  159  A    between atoms: _378  and  _379
REMARK  160  A    between atoms: _378  and  _381
REMARK  161  A    between atoms: _381  and  _382
REMARK  162  A    between atoms: _385  and  _387
REMARK  163  A    between atoms: _387  and  _388
REMARK  164  A    between atoms: _390  and  _392
REMARK  165  A    between atoms: _392  and  _393
REMARK  166  A    between atoms: _395  and  _397
REMARK  167  A    between atoms: _397  and  _398
REMARK  168  A    between atoms: _397  and  _400
REMARK  169  A    between atoms: _400  and  _401
REMARK  170  A    between atoms: _404  and  _406
REMARK  171  A    between atoms: _406  and  _407
REMARK  172  A    between atoms: _409  and  _411
REMARK  173  A    between atoms: _411  and  _412
REMARK  174  A    between atoms: _414  and  _416
REMARK  175  A    between atoms: _416  and  _417
REMARK  176  A    between atoms: _416  and  _419
REMARK  177  A    between atoms: _419  and  _420
REMARK  178  A    between atoms: _423  and  _425
REMARK  179  A    between atoms: _425  and  _426
REMARK  180  A    between atoms: _425  and  _428
REMARK  181  A    between atoms: _428  and  _429
REMARK  182  A    between atoms: _433  and  _434
REMARK  183  A    between atoms: _439  and  _441
REMARK  184  A    between atoms: _441  and  _442
REMARK  185  A    between atoms: _441  and  _444
REMARK  186  A    between atoms: _444  and  _445
REMARK  187  A    between atoms: _449  and  _450
REMARK  188  A    between atoms: _455  and  _457
REMARK  189  A    between atoms: _457  and  _458
REMARK  190  A    between atoms: _457  and  _460
REMARK  191  A    between atoms: _463  and  _465
REMARK  192  A    between atoms: _465  and  _466
REMARK  193  A    between atoms: _465  and  _468
REMARK  194  A    between atoms: _468  and  _469
REMARK  195  A    between atoms: _474  and  _476
REMARK  196  A    between atoms: _476  and  _477
REMARK  197  A    between atoms: _476  and  _479
REMARK  198  A    between atoms: _479  and  _480
REMARK  199  A    between atoms: _483  and  _485
REMARK  200  A    between atoms: _485  and  _486
REMARK  201  A    between atoms: _485  and  _488
REMARK  202  A    between atoms: _488  and  _489
REMARK  203  A    between atoms: _492  and  _494
REMARK  204  A    between atoms: _494  and  _495
REMARK  205  A    between atoms: _497  and  _499
REMARK  206  A    between atoms: _499  and  _500
REMARK  207  A    between atoms: _499  and  _502
REMARK  208  A    between atoms: _502  and  _503
REMARK  209  A    between atoms: _503  and  _504
REMARK  210  A    between atoms: _504  and  _505
REMARK  211  A    between atoms: _514  and  _516
REMARK  212  A    between atoms: _516  and  _517
REMARK  213  A    between atoms: _516  and  _519
REMARK  214  A    between atoms: _519  and  _520
REMARK                            x       y       z     vdW  Elec       q    Type
REMARK                         _______ _______ _______ _____ _____    ______ ____
ROOT
ATOM      1  O   HOH     1       3.857  18.016  13.412  0.00  0.00    +0.000 OA
ENDROOT
TORSDOF 0
REMARK  Name = ../refined-set-2016/1hpv/1hpv_pocket.pdb
REMARK  214 active torsions:
REMARK  status: ('A' for Active; 'I' for Inactive)
REMARK    1  A    between atoms: _1  and  _3
REMARK    2  A    between atoms: _3  and  _4
REMARK    3  A    between atoms: _3  and  _6
REMARK    4  A    between atoms: _6  and  _7
REMARK    5  A    between atoms: _7  and  _8
REMARK    6  A    between atoms: _8  and  _9
REMARK    7  A    between atoms: _18  and  _20
REMARK    8  A    between atoms: _20  and  _21
REMARK    9  A    between atoms: _20  and  _23
REMARK   10  A    between atoms: _23  and  _24
REMARK   11  A    between atoms: _27  and  _29
REMARK   12  A    between atoms: _29  and  _30
REMARK   13  A    between atoms: _29  and  _32
REMARK   14  A    between atoms: _32  and  _33
REMARK   15  A    between atoms: _36  and  _38
REMARK   16  A    between atoms: _38  and  _39
REMARK   17  A    between atoms: _38  and  _41
REMARK   18  A    between atoms: _41  and  _42
REMARK   19  A    between atoms: _45  and  _47
REMARK   20  A    between atoms: _47  and  _48
REMARK   21  A    between atoms: _47  and  _50
REMARK   22  A    between atoms: _50  and  _51
REMARK   23  A    between atoms: _54  and  _56
REMARK   24  A    between atoms: _56  and  _57
REMARK   25  A    between atoms: _59  and  _61
REMARK   26  A    between atoms: _61  and  _62
REMARK   27  A    between atoms: _65  and  _67
REMARK   28  A    between atoms: _67  and  _68
REMARK   29  A    between atoms: _67  and  _70
REMARK   30  A    between atoms: _70  and  _71
REMARK   31  A    between atoms: _74  and  _76
REMARK   32  A    between atoms: _76  and  _77
REMARK   33  A    between atoms: _76  and  _79
REMARK   34  A    between atoms: _79  and  _80
REMARK   35  A    between atoms: _83  and  _85
REMARK   36  A    between atoms: _85  and  _86
REMARK   37  A    between atoms: _85  and  _88
REMARK   38  A    between atoms: _88  and  _89
REMARK   39  A    between atoms: _92  and  _94
REMARK   40  A    between atoms: _94  and  _95
REMARK   41  A    between atoms: _94  and  _97
REMARK   42  A    between atoms: _100  and  _102
REMARK   43  A    between atoms: _102  and  _103
REMARK   44  A    between atoms: _102  and  _105
REMARK   45  A    between atoms: _105  and  _106
REMARK   46  A    between atoms: _106  and  _107
REMARK   47  A    between atoms: _107  and  _108
REMARK   48  A    between atoms: _108  and  _109
REMARK   49  A    between atoms: _113  and  _115
REMARK   50  A    between atoms: _115  and  _116
REMARK   51  A    between atoms: _115  and  _118
REMARK   52  A    between atoms: _118  and  _119
REMARK   53  A    between atoms: _119  and  _120
REMARK   54  A    between atoms: _122  and  _124
REMARK   55  A    between atoms: _124  and  _125
REMARK   56  A    between atoms: _124  and  _127
REMARK   57  A    between atoms: _127  and  _128
REMARK   58  A    between atoms: _131  and  _133
REMARK   59  A    between atoms: _133  and  _134
REMARK   60  A    between atoms: _136  and  _138
REMARK   61  A    between atoms: _138  and  _139
REMARK   62  A    between atoms: _141  and  _143
REMARK   63  A    between atoms: _143  and  _144
REMARK   64  A    between atoms: _143  and  _146
REMARK   65  A    between atoms: _146  and  _147
REMARK   66  A    between atoms: _150  and  _152
REMARK   67  A    between atoms: _152  and  _153
REMARK   68  A    between atoms: _155  and  _157
REMARK   69  A    between atoms: _157  and  _158
REMARK   70  A    between atoms: _160  and  _162
REMARK   71  A    between atoms: _162  and  _163
REMARK   72  A    between atoms: _162  and  _165
REMARK   73  A    between atoms: _165  and  _166
REMARK   74  A    between atoms: _169  and  _171
REMARK   75  A    between atoms: _171  and  _172
REMARK   76  A    between atoms: _171  and  _174
REMARK   77  A    between atoms: _174  and  _175
REMARK   78  A    between atoms: _178  and  _180
REMARK   79  A    between atoms: _180  and  _181
REMARK   80  A    between atoms: _180  and  _183
REMARK   81  A    between atoms: _183  and  _184
REMARK   82  A    between atoms: _188  and  _189
REMARK   83  A    between atoms: _194  and  _196
REMARK   84  A    between atoms: _196  and  _197
REMARK   85  A    between atoms: _196  and  _199
REMARK   86  A    between atoms: _202  and  _204
REMARK   87  A    between atoms: _204  and  _205
REMARK   88  A    between atoms: _204  and  _207
REMARK   89  A    between atoms: _207  and  _208
REMARK   90  A    between atoms: _213  and  _215
REMARK   91  A    between atoms: _215  and  _216
REMARK   92  A    between atoms: _215  and  _218
REMARK   93  A    between atoms: _218  and  _219
REMARK   94  A    between atoms: _222  and  _224
REMARK   95  A    between atoms: _224  and  _225
REMARK   96  A    between atoms: _224  and  _227
REMARK   97  A    between atoms: _227  and  _228
REMARK   98  A    between atoms: _231  and  _233
REMARK   99  A    between atoms: _233  and  _234
REMARK  100  A    between atoms: _236  and  _238
REMARK  101  A    between atoms: _238  and  _239
REMARK  102  A    between atoms: _238  and  _241
REMARK  103  A    between atoms: _241  and  _242
REMARK  104  A    between atoms: _242  and  _243
REMARK  105  A    between atoms: _243  and  _244
REMARK  106  A    between atoms: _253  and  _255
REMARK  107  A    between atoms: _255  and  _256
REMARK  108  A    between atoms: _255  and  _258
REMARK  109  A    between atoms: _258  and  _259
REMARK  110  A    between atoms: _264  and  _266
REMARK  111  A    between atoms: _266  and  _267
REMARK  112  A    between atoms: _266  and  _269
REMARK  113  A    between atoms: _269  and  _270
REMARK  114  A    between atoms: _270  and  _271
REMARK  115  A    between atoms: _271  and  _272
REMARK  116  A    between atoms: _281  and  _283
REMARK  117  A    between atoms: _283  and  _284
REMARK  118  A    between atoms: _283  and  _286
REMARK  119  A    between atoms: _286  and  _287
REMARK  120  A    between atoms: _290  and  _292
REMARK  121  A    between atoms: _292  and  _293
REMARK  122  A    between atoms: _292  and  _295
REMARK  123  A    between atoms: _295  and  _296
REMARK  124  A    between atoms: _299  and  _301
REMARK  125  A    between atoms: _301  and  _302
REMARK  126  A    between atoms: _301  and  _304
REMARK  127  A    between atoms: _304  and  _305
REMARK  128  A    between atoms: _308  and  _310
REMARK  129  A    between atoms: _310  and  _311
REMARK  130  A    between atoms: _310  and  _313
REMARK  131  A    between atoms: _313  and  _314
REMARK  132  A    between atoms: _317  and  _319
REMARK  133  A    between atoms: _319  and  _320
REMARK  134  A    between atoms: _322  and  _324
REMARK  135  A    between atoms: _324  and  _325
REMARK  136  A    between atoms: _328  and  _330
REMARK  137  A    between atoms: _330  and  _331
REMARK  138  A    between atoms: _330  and  _333
REMARK  139  A    between atoms: _333  and  _334
REMARK  140  A    between atoms: _337  and  _339
REMARK  141  A    between atoms: _339  and  _340
REMARK  142  A    between atoms: _339  and  _342
REMARK  143  A    between atoms: _342  and  _343
REMARK  144  A    between atoms: _346  and  _348
REMARK  145  A    between atoms: _348  and  _349
REMARK  146  A    between atoms: _348  and  _351
REMARK  147  A    between atoms: _351  and  _352
REMARK  148  A    between atoms: _355  and  _357
REMARK  149  A    between atoms: _357  and  _358
REMARK  150  A    between atoms: _357  and  _360
REMARK  151  A    between atoms: _363  and  _365
REMARK  152  A    between atoms: _365  and  _366
REMARK  153  A    between atoms: _365  and  _368
REMARK  154  A    between atoms: _368  and  _369
REMARK  155  A    between atoms: _369  and  _370
REMARK  156  A    between atoms: _370  and  _371
REMARK  157  A    between atoms: _371  and  _372
REMARK  158  A    between atoms: _376  and  _378
REMARK  159  A    between atoms: _378  and  _379
REMARK  160  A    between atoms: _378  and  _381
REMARK  161  A    between atoms: _381  and  _382
REMARK  162  A    between atoms: _385  and  _387
REMARK  163  A    between atoms: _387  and  _388
REMARK  164  A    between atoms: _390  and  _392
REMARK  165  A    between atoms: _392  and  _393
REMARK  166  A    between atoms: _395  and  _397
REMARK  167  A    between atoms: _397  and  _398
REMARK  168  A    between atoms: _397  and  _400
REMARK  169  A    between atoms: _400  and  _401
REMARK  170  A    between atoms: _404  and  _406
REMARK  171  A    between atoms: _406  and  _407
REMARK  172  A    between atoms: _409  and  _411
REMARK  173  A    between atoms: _411  and  _412
REMARK  174  A    between atoms: _414  and  _416
REMARK  175  A    between atoms: _416  and  _417
REMARK  176  A    between atoms: _416  and  _419
REMARK  177  A    between atoms: _419  and  _420
REMARK  178  A    between atoms: _423  and  _425
REMARK  179  A    between atoms: _425  and  _426
REMARK  180  A    between atoms: _425  and  _428
REMARK  181  A    between atoms: _428  and  _429
REMARK  182  A    between atoms: _433  and  _434
REMARK  183  A    between atoms: _439  and  _441
REMARK  184  A    between atoms: _441  and  _442
REMARK  185  A    between atoms: _441  and  _444
REMARK  186  A    between atoms: _444  and  _445
REMARK  187  A    between atoms: _449  and  _450
REMARK  188  A    between atoms: _455  and  _457
REMARK  189  A    between atoms: _457  and  _458
REMARK  190  A    between atoms: _457  and  _460
REMARK  191  A    between atoms: _463  and  _465
REMARK  192  A    between atoms: _465  and  _466
REMARK  193  A    between atoms: _465  and  _468
REMARK  194  A    between atoms: _468  and  _469
REMARK  195  A    between atoms: _474  and  _476
REMARK  196  A    between atoms: _476  and  _477
REMARK  197  A    between atoms: _476  and  _479
REMARK  198  A    between atoms: _479  and  _480
REMARK  199  A    between atoms: _483  and  _485
REMARK  200  A    between atoms: _485  and  _486
REMARK  201  A    between atoms: _485  and  _488
REMARK  202  A    between atoms: _488  and  _489
REMARK  203  A    between atoms: _492  and  _494
REMARK  204  A    between atoms: _494  and  _495
REMARK  205  A    between atoms: _497  and  _499
REMARK  206  A    between atoms: _499  and  _500
REMARK  207  A    between atoms: _499  and  _502
REMARK  208  A    between atoms: _502  and  _503
REMARK  209  A    between atoms: _503  and  _504
REMARK  210  A    between atoms: _504  and  _505
REMARK  211  A    between atoms: _514  and  _516
REMARK  212  A    between atoms: _516  and  _517
REMARK  213  A    between atoms: _516  and  _519
REMARK  214  A    between atoms: _519  and  _520
REMARK                            x       y       z     vdW  Elec       q    Type
REMARK                         _______ _______ _______ _____ _____    ______ ____
ROOT
ATOM      1  O   HOH     1       7.353  20.000  14.243  0.00  0.00    +0.000 OA
ENDROOT
TORSDOF 0
REMARK  Name = ../refined-set-2016/1hpv/1hpv_pocket.pdb
REMARK  214 active torsions:
REMARK  status: ('A' for Active; 'I' for Inactive)
REMARK    1  A    between atoms: _1  and  _3
REMARK    2  A    between atoms: _3  and  _4
REMARK    3  A    between atoms: _3  and  _6
REMARK    4  A    between atoms: _6  and  _7
REMARK    5  A    between atoms: _7  and  _8
REMARK    6  A    between atoms: _8  and  _9
REMARK    7  A    between atoms: _18  and  _20
REMARK    8  A    between atoms: _20  and  _21
REMARK    9  A    between atoms: _20  and  _23
REMARK   10  A    between atoms: _23  and  _24
REMARK   11  A    between atoms: _27  and  _29
REMARK   12  A    between atoms: _29  and  _30
REMARK   13  A    between atoms: _29  and  _32
REMARK   14  A    between atoms: _32  and  _33
REMARK   15  A    between atoms: _36  and  _38
REMARK   16  A    between atoms: _38  and  _39
REMARK   17  A    between atoms: _38  and  _41
REMARK   18  A    between atoms: _41  and  _42
REMARK   19  A    between atoms: _45  and  _47
REMARK   20  A    between atoms: _47  and  _48
REMARK   21  A    between atoms: _47  and  _50
REMARK   22  A    between atoms: _50  and  _51
REMARK   23  A    between atoms: _54  and  _56
REMARK   24  A    between atoms: _56  and  _57
REMARK   25  A    between atoms: _59  and  _61
REMARK   26  A    between atoms: _61  and  _62
REMARK   27  A    between atoms: _65  and  _67
REMARK   28  A    between atoms: _67  and  _68
REMARK   29  A    between atoms: _67  and  _70
REMARK   30  A    between atoms: _70  and  _71
REMARK   31  A    between atoms: _74  and  _76
REMARK   32  A    between atoms: _76  and  _77
REMARK   33  A    between atoms: _76  and  _79
REMARK   34  A    between atoms: _79  and  _80
REMARK   35  A    between atoms: _83  and  _85
REMARK   36  A    between atoms: _85  and  _86
REMARK   37  A    between atoms: _85  and  _88
REMARK   38  A    between atoms: _88  and  _89
REMARK   39  A    between atoms: _92  and  _94
REMARK   40  A    between atoms: _94  and  _95
REMARK   41  A    between atoms: _94  and  _97
REMARK   42  A    between atoms: _100  and  _102
REMARK   43  A    between atoms: _102  and  _103
REMARK   44  A    between atoms: _102  and  _105
REMARK   45  A    between atoms: _105  and  _106
REMARK   46  A    between atoms: _106  and  _107
REMARK   47  A    between atoms: _107  and  _108
REMARK   48  A    between atoms: _108  and  _109
REMARK   49  A    between atoms: _113  and  _115
REMARK   50  A    between atoms: _115  and  _116
REMARK   51  A    between atoms: _115  and  _118
REMARK   52  A    between atoms: _118  and  _119
REMARK   53  A    between atoms: _119  and  _120
REMARK   54  A    between atoms: _122  and  _124
REMARK   55  A    between atoms: _124  and  _125
REMARK   56  A    between atoms: _124  and  _127
REMARK   57  A    between atoms: _127  and  _128
REMARK   58  A    between atoms: _131  and  _133
REMARK   59  A    between atoms: _133  and  _134
REMARK   60  A    between atoms: _136  and  _138
REMARK   61  A    between atoms: _138  and  _139
REMARK   62  A    between atoms: _141  and  _143
REMARK   63  A    between atoms: _143  and  _144
REMARK   64  A    between atoms: _143  and  _146
REMARK   65  A    between atoms: _146  and  _147
REMARK   66  A    between atoms: _150  and  _152
REMARK   67  A    between atoms: _152  and  _153
REMARK   68  A    between atoms: _155  and  _157
REMARK   69  A    between atoms: _157  and  _158
REMARK   70  A    between atoms: _160  and  _162
REMARK   71  A    between atoms: _162  and  _163
REMARK   72  A    between atoms: _162  and  _165
REMARK   73  A    between atoms: _165  and  _166
REMARK   74  A    between atoms: _169  and  _171
REMARK   75  A    between atoms: _171  and  _172
REMARK   76  A    between atoms: _171  and  _174
REMARK   77  A    between atoms: _174  and  _175
REMARK   78  A    between atoms: _178  and  _180
REMARK   79  A    between atoms: _180  and  _181
REMARK   80  A    between atoms: _180  and  _183
REMARK   81  A    between atoms: _183  and  _184
REMARK   82  A    between atoms: _188  and  _189
REMARK   83  A    between atoms: _194  and  _196
REMARK   84  A    between atoms: _196  and  _197
REMARK   85  A    between atoms: _196  and  _199
REMARK   86  A    between atoms: _202  and  _204
REMARK   87  A    between atoms: _204  and  _205
REMARK   88  A    between atoms: _204  and  _207
REMARK   89  A    between atoms: _207  and  _208
REMARK   90  A    between atoms: _213  and  _215
REMARK   91  A    between atoms: _215  and  _216
REMARK   92  A    between atoms: _215  and  _218
REMARK   93  A    between atoms: _218  and  _219
REMARK   94  A    between atoms: _222  and  _224
REMARK   95  A    between atoms: _224  and  _225
REMARK   96  A    between atoms: _224  and  _227
REMARK   97  A    between atoms: _227  and  _228
REMARK   98  A    between atoms: _231  and  _233
REMARK   99  A    between atoms: _233  and  _234
REMARK  100  A    between atoms: _236  and  _238
REMARK  101  A    between atoms: _238  and  _239
REMARK  102  A    between atoms: _238  and  _241
REMARK  103  A    between atoms: _241  and  _242
REMARK  104  A    between atoms: _242  and  _243
REMARK  105  A    between atoms: _243  and  _244
REMARK  106  A    between atoms: _253  and  _255
REMARK  107  A    between atoms: _255  and  _256
REMARK  108  A    between atoms: _255  and  _258
REMARK  109  A    between atoms: _258  and  _259
REMARK  110  A    between atoms: _264  and  _266
REMARK  111  A    between atoms: _266  and  _267
REMARK  112  A    between atoms: _266  and  _269
REMARK  113  A    between atoms: _269  and  _270
REMARK  114  A    between atoms: _270  and  _271
REMARK  115  A    between atoms: _271  and  _272
REMARK  116  A    between atoms: _281  and  _283
REMARK  117  A    between atoms: _283  and  _284
REMARK  118  A    between atoms: _283  and  _286
REMARK  119  A    between atoms: _286  and  _287
REMARK  120  A    between atoms: _290  and  _292
REMARK  121  A    between atoms: _292  and  _293
REMARK  122  A    between atoms: _292  and  _295
REMARK  123  A    between atoms: _295  and  _296
REMARK  124  A    between atoms: _299  and  _301
REMARK  125  A    between atoms: _301  and  _302
REMARK  126  A    between atoms: _301  and  _304
REMARK  127  A    between atoms: _304  and  _305
REMARK  128  A    between atoms: _308  and  _310
REMARK  129  A    between atoms: _310  and  _311
REMARK  130  A    between atoms: _310  and  _313
REMARK  131  A    between atoms: _313  and  _314
REMARK  132  A    between atoms: _317  and  _319
REMARK  133  A    between atoms: _319  and  _320
REMARK  134  A    between atoms: _322  and  _324
REMARK  135  A    between atoms: _324  and  _325
REMARK  136  A    between atoms: _328  and  _330
REMARK  137  A    between atoms: _330  and  _331
REMARK  138  A    between atoms: _330  and  _333
REMARK  139  A    between atoms: _333  and  _334
REMARK  140  A    between atoms: _337  and  _339
REMARK  141  A    between atoms: _339  and  _340
REMARK  142  A    between atoms: _339  and  _342
REMARK  143  A    between atoms: _342  and  _343
REMARK  144  A    between atoms: _346  and  _348
REMARK  145  A    between atoms: _348  and  _349
REMARK  146  A    between atoms: _348  and  _351
REMARK  147  A    between atoms: _351  and  _352
REMARK  148  A    between atoms: _355  and  _357
REMARK  149  A    between atoms: _357  and  _358
REMARK  150  A    between atoms: _357  and  _360
REMARK  151  A    between atoms: _363  and  _365
REMARK  152  A    between atoms: _365  and  _366
REMARK  153  A    between atoms: _365  and  _368
REMARK  154  A    between atoms: _368  and  _369
REMARK  155  A    between atoms: _369  and  _370
REMARK  156  A    between atoms: _370  and  _371
REMARK  157  A    between atoms: _371  and  _372
REMARK  158  A    between atoms: _376  and  _378
REMARK  159  A    between atoms: _378  and  _379
REMARK  160  A    between atoms: _378  and  _381
REMARK  161  A    between atoms: _381  and  _382
REMARK  162  A    between atoms: _385  and  _387
REMARK  163  A    between atoms: _387  and  _388
REMARK  164  A    between atoms: _390  and  _392
REMARK  165  A    between atoms: _392  and  _393
REMARK  166  A    between atoms: _395  and  _397
REMARK  167  A    between atoms: _397  and  _398
REMARK  168  A    between atoms: _397  and  _400
REMARK  169  A    between atoms: _400  and  _401
REMARK  170  A    between atoms: _404  and  _406
REMARK  171  A    between atoms: _406  and  _407
REMARK  172  A    between atoms: _409  and  _411
REMARK  173  A    between atoms: _411  and  _412
REMARK  174  A    between atoms: _414  and  _416
REMARK  175  A    between atoms: _416  and  _417
REMARK  176  A    between atoms: _416  and  _419
REMARK  177  A    between atoms: _419  and  _420
REMARK  178  A    between atoms: _423  and  _425
REMARK  179  A    between atoms: _425  and  _426
REMARK  180  A    between atoms: _425  and  _428
REMARK  181  A    between atoms: _428  and  _429
REMARK  182  A    between atoms: _433  and  _434
REMARK  183  A    between atoms: _439  and  _441
REMARK  184  A    between atoms: _441  and  _442
REMARK  185  A    between atoms: _441  and  _444
REMARK  186  A    between atoms: _444  and  _445
REMARK  187  A    between atoms: _449  and  _450
REMARK  188  A    between atoms: _455  and  _457
REMARK  189  A    between atoms: _457  and  _458
REMARK  190  A    between atoms: _457  and  _460
REMARK  191  A    between atoms: _463  and  _465
REMARK  192  A    between atoms: _465  and  _466
REMARK  193  A    between atoms: _465  and  _468
REMARK  194  A    between atoms: _468  and  _469
REMARK  195  A    between atoms: _474  and  _476
REMARK  196  A    between atoms: _476  and  _477
REMARK  197  A    between atoms: _476  and  _479
REMARK  198  A    between atoms: _479  and  _480
REMARK  199  A    between atoms: _483  and  _485
REMARK  200  A    between atoms: _485  and  _486
REMARK  201  A    between atoms: _485  and  _488
REMARK  202  A    between atoms: _488  and  _489
REMARK  203  A    between atoms: _492  and  _494
REMARK  204  A    between atoms: _494  and  _495
REMARK  205  A    between atoms: _497  and  _499
REMARK  206  A    between atoms: _499  and  _500
REMARK  207  A    between atoms: _499  and  _502
REMARK  208  A    between atoms: _502  and  _503
REMARK  209  A    between atoms: _503  and  _504
REMARK  210  A    between atoms: _504  and  _505
REMARK  211  A    between atoms: _514  and  _516
REMARK  212  A    between atoms: _516  and  _517
REMARK  213  A    between atoms: _516  and  _519
REMARK  214  A    between atoms: _519  and  _520
REMARK                            x       y       z     vdW  Elec       q    Type
REMARK                         _______ _______ _______ _____ _____    ______ ____
ROOT
ATOM      1  O   HOH     1       1.030  16.021  13.141  0.00  0.00    +0.000 OA
ENDROOT
TORSDOF 0
