REMARK  Name = ../refined-set-2016/4e6q/4e6q_pocket.pdb
REMARK  233 active torsions:
REMARK  status: ('A' for Active; 'I' for Inactive)
REMARK    1  A    between atoms: _1  and  _3
REMARK    2  A    between atoms: _3  and  _4
REMARK    3  A    between atoms: _3  and  _6
REMARK    4  A    between atoms: _6  and  _7
REMARK    5  A    between atoms: _7  and  _8
REMARK    6  A    between atoms: _8  and  _9
REMARK    7  A    between atoms: _18  and  _20
REMARK    8  A    between atoms: _20  and  _21
REMARK    9  A    between atoms: _20  and  _23
REMARK   10  A    between atoms: _23  and  _24
REMARK   11  A    between atoms: _24  and  _25
REMARK   12  A    between atoms: _30  and  _32
REMARK   13  A    between atoms: _32  and  _33
REMARK   14  A    between atoms: _32  and  _35
REMARK   15  A    between atoms: _35  and  _36
REMARK   16  A    between atoms: _39  and  _41
REMARK   17  A    between atoms: _41  and  _42
REMARK   18  A    between atoms: _44  and  _46
REMARK   19  A    between atoms: _46  and  _47
REMARK   20  A    between atoms: _46  and  _49
REMARK   21  A    between atoms: _49  and  _50
REMARK   22  A    between atoms: _50  and  _51
REMARK   23  A    between atoms: _51  and  _52
REMARK   24  A    between atoms: _52  and  _53
REMARK   25  A    between atoms: _57  and  _59
REMARK   26  A    between atoms: _59  and  _60
REMARK   27  A    between atoms: _62  and  _64
REMARK   28  A    between atoms: _64  and  _65
REMARK   29  A    between atoms: _64  and  _67
REMARK   30  A    between atoms: _67  and  _68
REMARK   31  A    between atoms: _73  and  _75
REMARK   32  A    between atoms: _75  and  _76
REMARK   33  A    between atoms: _75  and  _78
REMARK   34  A    between atoms: _78  and  _79
REMARK   35  A    between atoms: _85  and  _87
REMARK   36  A    between atoms: _87  and  _88
REMARK   37  A    between atoms: _90  and  _92
REMARK   38  A    between atoms: _92  and  _93
REMARK   39  A    between atoms: _92  and  _95
REMARK   40  A    between atoms: _95  and  _96
REMARK   41  A    between atoms: _98  and  _100
REMARK   42  A    between atoms: _100  and  _101
REMARK   43  A    between atoms: _100  and  _103
REMARK   44  A    between atoms: _106  and  _108
REMARK   45  A    between atoms: _108  and  _109
REMARK   46  A    between atoms: _108  and  _111
REMARK   47  A    between atoms: _111  and  _112
REMARK   48  A    between atoms: _112  and  _113
REMARK   49  A    between atoms: _116  and  _118
REMARK   50  A    between atoms: _118  and  _119
REMARK   51  A    between atoms: _118  and  _121
REMARK   52  A    between atoms: _121  and  _122
REMARK   53  A    between atoms: _122  and  _123
REMARK   54  A    between atoms: _125  and  _127
REMARK   55  A    between atoms: _127  and  _128
REMARK   56  A    between atoms: _127  and  _130
REMARK   57  A    between atoms: _133  and  _135
REMARK   58  A    between atoms: _135  and  _136
REMARK   59  A    between atoms: _135  and  _138
REMARK   60  A    between atoms: _141  and  _143
REMARK   61  A    between atoms: _143  and  _144
REMARK   62  A    between atoms: _147  and  _149
REMARK   63  A    between atoms: _149  and  _150
REMARK   64  A    between atoms: _149  and  _152
REMARK   65  A    between atoms: _155  and  _157
REMARK   66  A    between atoms: _157  and  _158
REMARK   67  A    between atoms: _157  and  _160
REMARK   68  A    between atoms: _160  and  _161
REMARK   69  A    between atoms: _161  and  _162
REMARK   70  A    between atoms: _162  and  _163
REMARK   71  A    between atoms: _163  and  _164
REMARK   72  A    between atoms: _168  and  _170
REMARK   73  A    between atoms: _170  and  _171
REMARK   74  A    between atoms: _170  and  _173
REMARK   75  A    between atoms: _173  and  _174
REMARK   76  A    between atoms: _174  and  _175
REMARK   77  A    between atoms: _175  and  _176
REMARK   78  A    between atoms: _176  and  _177
REMARK   79  A    between atoms: _181  and  _183
REMARK   80  A    between atoms: _183  and  _184
REMARK   81  A    between atoms: _183  and  _186
REMARK   82  A    between atoms: _186  and  _187
REMARK   83  A    between atoms: _190  and  _192
REMARK   84  A    between atoms: _192  and  _193
REMARK   85  A    between atoms: _192  and  _195
REMARK   86  A    between atoms: _195  and  _196
REMARK   87  A    between atoms: _196  and  _197
REMARK   88  A    between atoms: _202  and  _204
REMARK   89  A    between atoms: _204  and  _205
REMARK   90  A    between atoms: _204  and  _207
REMARK   91  A    between atoms: _207  and  _208
REMARK   92  A    between atoms: _214  and  _216
REMARK   93  A    between atoms: _216  and  _217
REMARK   94  A    between atoms: _216  and  _219
REMARK   95  A    between atoms: _219  and  _220
REMARK   96  A    between atoms: _220  and  _221
REMARK   97  A    between atoms: _224  and  _226
REMARK   98  A    between atoms: _226  and  _227
REMARK   99  A    between atoms: _226  and  _229
REMARK  100  A    between atoms: _229  and  _230
REMARK  101  A    between atoms: _233  and  _235
REMARK  102  A    between atoms: _235  and  _236
REMARK  103  A    between atoms: _235  and  _238
REMARK  104  A    between atoms: _241  and  _243
REMARK  105  A    between atoms: _243  and  _244
REMARK  106  A    between atoms: _243  and  _246
REMARK  107  A    between atoms: _246  and  _247
REMARK  108  A    between atoms: _247  and  _248
REMARK  109  A    between atoms: _248  and  _249
REMARK  110  A    between atoms: _249  and  _250
REMARK  111  A    between atoms: _254  and  _256
REMARK  112  A    between atoms: _256  and  _257
REMARK  113  A    between atoms: _256  and  _259
REMARK  114  A    between atoms: _259  and  _260
REMARK  115  A    between atoms: _260  and  _261
REMARK  116  A    between atoms: _261  and  _262
REMARK  117  A    between atoms: _262  and  _263
REMARK  118  A    between atoms: _267  and  _269
REMARK  119  A    between atoms: _269  and  _270
REMARK  120  A    between atoms: _269  and  _272
REMARK  121  A    between atoms: _272  and  _273
REMARK  122  A    between atoms: _276  and  _278
REMARK  123  A    between atoms: _278  and  _279
REMARK  124  A    between atoms: _278  and  _281
REMARK  125  A    between atoms: _281  and  _282
REMARK  126  A    between atoms: _285  and  _287
REMARK  127  A    between atoms: _287  and  _288
REMARK  128  A    between atoms: _287  and  _290
REMARK  129  A    between atoms: _290  and  _291
REMARK  130  A    between atoms: _291  and  _292
REMARK  131  A    between atoms: _294  and  _296
REMARK  132  A    between atoms: _296  and  _297
REMARK  133  A    between atoms: _296  and  _299
REMARK  134  A    between atoms: _299  and  _300
REMARK  135  A    between atoms: _300  and  _301
REMARK  136  A    between atoms: _304  and  _306
REMARK  137  A    between atoms: _306  and  _307
REMARK  138  A    between atoms: _306  and  _309
REMARK  139  A    between atoms: _309  and  _310
REMARK  140  A    between atoms: _316  and  _318
REMARK  141  A    between atoms: _318  and  _319
REMARK  142  A    between atoms: _318  and  _321
REMARK  143  A    between atoms: _321  and  _322
REMARK  144  A    between atoms: _326  and  _327
REMARK  145  A    between atoms: _332  and  _334
REMARK  146  A    between atoms: _334  and  _335
REMARK  147  A    between atoms: _334  and  _337
REMARK  148  A    between atoms: _337  and  _338
REMARK  149  A    between atoms: _343  and  _344
REMARK  150  A    between atoms: _346  and  _348
REMARK  151  A    between atoms: _348  and  _349
REMARK  152  A    between atoms: _351  and  _353
REMARK  153  A    between atoms: _353  and  _354
REMARK  154  A    between atoms: _353  and  _356
REMARK  155  A    between atoms: _356  and  _357
REMARK  156  A    between atoms: _359  and  _361
REMARK  157  A    between atoms: _361  and  _362
REMARK  158  A    between atoms: _361  and  _364
REMARK  159  A    between atoms: _364  and  _365
REMARK  160  A    between atoms: _368  and  _370
REMARK  161  A    between atoms: _370  and  _371
REMARK  162  A    between atoms: _370  and  _373
REMARK  163  A    between atoms: _373  and  _374
REMARK  164  A    between atoms: _374  and  _375
REMARK  165  A    between atoms: _375  and  _376
REMARK  166  A    between atoms: _385  and  _387
REMARK  167  A    between atoms: _387  and  _388
REMARK  168  A    between atoms: _387  and  _390
REMARK  169  A    between atoms: _390  and  _391
REMARK  170  A    between atoms: _391  and  _392
REMARK  171  A    between atoms: _395  and  _397
REMARK  172  A    between atoms: _397  and  _398
REMARK  173  A    between atoms: _397  and  _400
REMARK  174  A    between atoms: _400  and  _401
REMARK  175  A    between atoms: _404  and  _406
REMARK  176  A    between atoms: _406  and  _407
REMARK  177  A    between atoms: _410  and  _412
REMARK  178  A    between atoms: _412  and  _413
REMARK  179  A    between atoms: _412  and  _415
REMARK  180  A    between atoms: _415  and  _416
REMARK  181  A    between atoms: _419  and  _421
REMARK  182  A    between atoms: _421  and  _422
REMARK  183  A    between atoms: _421  and  _424
REMARK  184  A    between atoms: _424  and  _425
REMARK  185  A    between atoms: _425  and  _426
REMARK  186  A    between atoms: _426  and  _427
REMARK  187  A    between atoms: _436  and  _438
REMARK  188  A    between atoms: _438  and  _439
REMARK  189  A    between atoms: _438  and  _441
REMARK  190  A    between atoms: _441  and  _442
REMARK  191  A    between atoms: _447  and  _449
REMARK  192  A    between atoms: _449  and  _450
REMARK  193  A    between atoms: _449  and  _452
REMARK  194  A    between atoms: _452  and  _453
REMARK  195  A    between atoms: _456  and  _458
REMARK  196  A    between atoms: _458  and  _459
REMARK  197  A    between atoms: _458  and  _461
REMARK  198  A    between atoms: _461  and  _462
REMARK  199  A    between atoms: _465  and  _467
REMARK  200  A    between atoms: _467  and  _468
REMARK  201  A    between atoms: _467  and  _470
REMARK  202  A    between atoms: _473  and  _475
REMARK  203  A    between atoms: _475  and  _476
REMARK  204  A    between atoms: _475  and  _478
REMARK  205  A    between atoms: _478  and  _479
REMARK  206  A    between atoms: _479  and  _480
REMARK  207  A    between atoms: _483  and  _485
REMARK  208  A    between atoms: _485  and  _486
REMARK  209  A    between atoms: _485  and  _488
REMARK  210  A    between atoms: _488  and  _489
REMARK  211  A    between atoms: _489  and  _490
REMARK  212  A    between atoms: _490  and  _491
REMARK  213  A    between atoms: _491  and  _492
REMARK  214  A    between atoms: _496  and  _498
REMARK  215  A    between atoms: _498  and  _499
REMARK  216  A    between atoms: _498  and  _501
REMARK  217  A    between atoms: _501  and  _502
REMARK  218  A    between atoms: _505  and  _507
REMARK  219  A    between atoms: _507  and  _508
REMARK  220  A    between atoms: _510  and  _512
REMARK  221  A    between atoms: _512  and  _513
REMARK  222  A    between atoms: _512  and  _515
REMARK  223  A    between atoms: _515  and  _516
REMARK  224  A    between atoms: _519  and  _521
REMARK  225  A    between atoms: _521  and  _522
REMARK  226  A    between atoms: _521  and  _524
REMARK  227  A    between atoms: _524  and  _525
REMARK  228  A    between atoms: _531  and  _533
REMARK  229  A    between atoms: _533  and  _534
REMARK  230  A    between atoms: _536  and  _538
REMARK  231  A    between atoms: _538  and  _539
REMARK  232  A    between atoms: _538  and  _541
REMARK  233  A    between atoms: _541  and  _542
REMARK                            x       y       z     vdW  Elec       q    Type
REMARK                         _______ _______ _______ _____ _____    ______ ____
ROOT
ATOM      1  C   GLY A   6       4.063  22.499   1.993  0.00  0.00    +0.243 C 
ATOM      2  N   ASN A   7       4.117  21.193   1.864  0.00  0.00    -0.297 N 
ATOM      3  H   ASN A   7       4.877  20.710   2.385  0.00  0.00    +0.150 HD
ATOM      4  O   GLY A   6       3.035  23.173   1.861  0.00  0.00    -0.273 OA
ENDROOT
BRANCH   1   5
ATOM      5  CA  GLY A   6       5.403  23.055   2.438  0.00  0.00    +0.176 C 
BRANCH   5   7
ATOM      6  C   LYS A   5       5.690  25.328   3.071  0.00  0.00    +0.241 C 
ATOM      7  N   GLY A   6       5.263  24.131   3.377  0.00  0.00    -0.295 N 
ATOM      8  H   GLY A   6       4.821  23.958   4.302  0.00  0.00    +0.150 HD
ATOM      9  O   LYS A   5       6.347  25.565   2.062  0.00  0.00    -0.273 OA
BRANCH   6  10
ATOM     10  CA  LYS A   5       5.365  26.386   4.073  0.00  0.00    +0.149 C 
BRANCH  10  13
ATOM     11  C   GLY A   4       6.843  27.129   5.777  0.00  0.00    +0.243 C 
ATOM     12  O   GLY A   4       6.075  26.737   6.615  0.00  0.00    -0.273 OA
ATOM     13  N   LYS A   5       6.620  26.948   4.493  0.00  0.00    -0.297 N 
ATOM     14  H   LYS A   5       7.342  27.208   3.791  0.00  0.00    +0.150 HD
BRANCH  11  15
ATOM     15  CA  GLY A   4       8.087  27.867   6.178  0.00  0.00    +0.176 C 
BRANCH  15  17
ATOM     16  C   LEU A   3       8.635  29.794   7.529  0.00  0.00    +0.241 C 
ATOM     17  N   GLY A   4       7.770  28.836   7.222  0.00  0.00    -0.295 N 
ATOM     18  H   GLY A   4       6.863  28.775   7.727  0.00  0.00    +0.150 HD
ATOM     19  O   LEU A   3       9.658  29.967   6.872  0.00  0.00    -0.273 OA
BRANCH  16  20
ATOM     20  CA  LEU A   3       8.290  30.710   8.709  0.00  0.00    +0.149 C 
BRANCH  20  22
ATOM     21  C   GLN A   2       6.321  31.979   8.374  0.00  0.00    +0.241 C 
ATOM     22  N   LEU A   3       6.860  30.853   8.782  0.00  0.00    -0.297 N 
ATOM     23  H   LEU A   3       6.267  30.082   9.150  0.00  0.00    +0.150 HD
ATOM     24  O   GLN A   2       6.976  32.904   7.915  0.00  0.00    -0.273 OA
BRANCH  21  25
ATOM     25  CA  GLN A   2       4.854  32.097   8.528  0.00  0.00    +0.149 C 
BRANCH  25  28
ATOM     26  C   ARG A   1       4.583  33.803  10.255  0.00  0.00    +0.238 C 
ATOM     27  O   ARG A   1       5.033  33.088  11.163  0.00  0.00    -0.274 OA
ATOM     28  N   GLN A   2       4.538  33.446   8.972  0.00  0.00    -0.297 N 
ATOM     29  H   GLN A   2       4.267  34.157   8.263  0.00  0.00    +0.150 HD
BRANCH  26  30
ATOM     30  CA  ARG A   1       4.024  35.166  10.570  0.00  0.00    +0.145 C 
BRANCH  30  31
ATOM     31  N   ARG A   1       3.694  35.190  11.986  0.00  0.00    -0.238 NA
ATOM     32  H   ARG A   1       4.043  34.427  12.600  0.00  0.00    +0.142 HD
ENDBRANCH  30  31
BRANCH  30  33
ATOM     33  CB  ARG A   1       5.031  36.206  10.222  0.00  0.00    +0.030 C 
BRANCH  33  34
ATOM     34  CG  ARG A   1       6.370  36.029  10.916  0.00  0.00    +0.045 C 
BRANCH  34  35
ATOM     35  CD  ARG A   1       7.336  37.050  10.353  0.00  0.00    +0.174 C 
BRANCH  35  36
ATOM     36  NE  ARG A   1       7.484  36.761   8.943  0.00  0.00    -0.265 N 
ATOM     37  CZ  ARG A   1       8.511  36.102   8.409  0.00  0.00    +0.342 C 
ATOM     38  NH2 ARG A   1       9.528  35.705   9.171  0.00  0.00    -0.292 N 
ATOM     39 HH21 ARG A   1       9.524  35.909  10.191  0.00  0.00    +0.255 HD
ATOM     40 HH22 ARG A   1      10.326  35.191   8.746  0.00  0.00    +0.255 HD
ATOM     41  NH1 ARG A   1       8.534  35.870   7.092  0.00  0.00    -0.292 N 
ATOM     42 HH11 ARG A   1       9.333  35.356   6.668  0.00  0.00    +0.255 HD
ATOM     43 HH12 ARG A   1       7.753  36.204   6.492  0.00  0.00    +0.255 HD
ATOM     44  HE  ARG A   1       6.735  37.091   8.301  0.00  0.00    +0.259 HD
ENDBRANCH  35  36
ENDBRANCH  34  35
ENDBRANCH  33  34
ENDBRANCH  30  33
ENDBRANCH  26  30
ENDBRANCH  25  28
BRANCH  25  45
ATOM     45  CB  GLN A   2       4.200  31.752   7.182  0.00  0.00    +0.039 C 
BRANCH  45  46
ATOM     46  CG  GLN A   2       4.089  30.227   7.051  0.00  0.00    +0.087 C 
BRANCH  46  47
ATOM     47  CD  GLN A   2       3.160  29.766   5.963  0.00  0.00    +0.219 C 
ATOM     48  OE1 GLN A   2       2.412  28.794   6.156  0.00  0.00    -0.275 OA
ATOM     49  NE2 GLN A   2       3.199  30.436   4.809  0.00  0.00    -0.329 N 
ATOM     50 HE21 GLN A   2       3.844  31.244   4.698  0.00  0.00    +0.145 HD
ATOM     51 HE22 GLN A   2       2.584  30.150   4.021  0.00  0.00    +0.145 HD
ENDBRANCH  46  47
ENDBRANCH  45  46
ENDBRANCH  25  45
ENDBRANCH  21  25
ENDBRANCH  20  22
BRANCH  20  52
ATOM     52  CB  LEU A   3       8.826  30.156  10.042  0.00  0.00    +0.029 C 
BRANCH  52  53
ATOM     53  CG  LEU A   3       8.730  31.023  11.303  0.00  0.00    +0.002 C 
ATOM     54  CD2 LEU A   3       9.265  30.344  12.546  0.00  0.00    +0.000 C 
ATOM     55  CD1 LEU A   3       9.500  32.326  11.027  0.00  0.00    +0.000 C 
ENDBRANCH  52  53
ENDBRANCH  20  52
ENDBRANCH  16  20
ENDBRANCH  15  17
ENDBRANCH  11  15
ENDBRANCH  10  13
BRANCH  10  56
ATOM     56  CB  LYS A   5       4.423  27.448   3.476  0.00  0.00    +0.029 C 
BRANCH  56  57
ATOM     57  CG  LYS A   5       2.886  27.118   3.560  0.00  0.00    +0.000 C 
BRANCH  57  58
ATOM     58  CD  LYS A   5       2.110  27.490   2.279  0.00  0.00    -0.024 C 
BRANCH  58  59
ATOM     59  CE  LYS A   5       1.213  28.723   2.443  0.00  0.00    -0.086 C 
BRANCH  59  60
ATOM     60  NZ  LYS A   5      -0.125  28.416   3.044  0.00  0.00    +0.380 N 
ATOM     61  HZ1 LYS A   5       0.008  28.000   3.988  0.00  0.00    -0.089 HD
ATOM     62  HZ2 LYS A   5      -0.677  29.294   3.125  0.00  0.00    -0.089 HD
ATOM     63  HZ3 LYS A   5      -0.631  27.742   2.435  0.00  0.00    -0.089 HD
ENDBRANCH  59  60
ENDBRANCH  58  59
ENDBRANCH  57  58
ENDBRANCH  56  57
ENDBRANCH  10  56
ENDBRANCH   6  10
ENDBRANCH   5   7
ENDBRANCH   1   5
BRANCH   2  64
ATOM     64  CA  ASN A   7       3.250  20.359   1.089  0.00  0.00    +0.158 C 
BRANCH  64  65
ATOM     65  C   ASN A   7       2.164  19.783   1.985  0.00  0.00    +0.241 C 
ATOM     66  N   PHE A   8       2.680  19.108   3.009  0.00  0.00    -0.297 N 
ATOM     67  H   PHE A   8       3.714  19.016   3.077  0.00  0.00    +0.150 HD
ATOM     68  O   ASN A   7       0.926  19.897   1.744  0.00  0.00    -0.273 OA
BRANCH  66  69
ATOM     69  CA  PHE A   8       1.862  18.499   4.028  0.00  0.00    +0.153 C 
BRANCH  69  70
ATOM     70  C   PHE A   8       2.273  19.014   5.400  0.00  0.00    +0.241 C 
ATOM     71  O   PHE A   8       1.970  18.398   6.420  0.00  0.00    -0.273 OA
ATOM     72  N   GLY A   9       2.917  20.187   5.394  0.00  0.00    -0.295 N 
ATOM     73  H   GLY A   9       3.059  20.669   4.483  0.00  0.00    +0.150 HD
BRANCH  72  74
ATOM     74  CA  GLY A   9       3.428  20.821   6.601  0.00  0.00    +0.176 C 
BRANCH  74  75
ATOM     75  C   GLY A   9       3.702  22.306   6.430  0.00  0.00    +0.243 C 
ATOM     76  N   SER A  10       3.913  22.983   7.548  0.00  0.00    -0.295 N 
ATOM     77  H   SER A  10       3.992  22.448   8.436  0.00  0.00    +0.150 HD
ATOM     78  O   GLY A   9       3.722  22.831   5.325  0.00  0.00    -0.273 OA
BRANCH  76  79
ATOM     79  CA  SER A  10       4.041  24.430   7.608  0.00  0.00    +0.178 C 
BRANCH  79  80
ATOM     80  C   SER A  10       4.636  24.756   9.011  0.00  0.00    +0.243 C 
ATOM     81  O   SER A  10       4.296  24.071  10.010  0.00  0.00    -0.273 OA
ATOM     82  N   VAL A  11       5.534  25.743   9.081  0.00  0.00    -0.297 N 
ATOM     83  H   VAL A  11       5.849  26.192   8.198  0.00  0.00    +0.150 HD
BRANCH  82  84
ATOM     84  CA  VAL A  11       6.098  26.223  10.358  0.00  0.00    +0.149 C 
BRANCH  84  85
ATOM     85  C   VAL A  11       5.797  27.705  10.595  0.00  0.00    +0.241 C 
ATOM     86  N   GLU A  12       5.286  28.047  11.787  0.00  0.00    -0.297 N 
ATOM     87  H   GLU A  12       5.154  27.311  12.510  0.00  0.00    +0.150 HD
ATOM     88  O   VAL A  11       5.985  28.523   9.693  0.00  0.00    -0.273 OA
BRANCH  86  89
ATOM     89  CA  GLU A  12       4.909  29.425  12.099  0.00  0.00    +0.149 C 
BRANCH  89  90
ATOM     90  C   GLU A  12       5.653  29.987  13.284  0.00  0.00    +0.241 C 
ATOM     91  O   GLU A  12       5.893  29.304  14.253  0.00  0.00    -0.273 OA
ATOM     92  N   MET A  13       5.954  31.266  13.243  0.00  0.00    -0.298 N 
ATOM     93  H   MET A  13       5.892  31.767  12.334  0.00  0.00    +0.150 HD
BRANCH  92  94
ATOM     94  CA  MET A  13       6.372  32.008  14.427  0.00  0.00    +0.138 C 
BRANCH  94  95
ATOM     95  C   MET A  13       5.118  32.409  15.222  0.00  0.00    +0.227 C 
ATOM     96  O   MET A  13       4.186  33.037  14.663  0.00  0.00    -0.286 OA
ENDBRANCH  94  95
BRANCH  94  97
ATOM     97  CB  MET A  13       7.041  33.297  13.968  0.00  0.00    +0.039 C 
BRANCH  97  98
ATOM     98  CG  MET A  13       7.874  33.955  15.046  0.00  0.00    +0.060 C 
BRANCH  98  99
ATOM     99  SD  MET A  13       8.084  35.659  14.504  0.00  0.00    -0.139 S 
ATOM    100  CE  MET A  13       8.862  36.325  15.978  0.00  0.00    +0.069 C 
ENDBRANCH  98  99
ENDBRANCH  97  98
ENDBRANCH  94  97
ENDBRANCH  92  94
ENDBRANCH  89  90
BRANCH  89 101
ATOM    101  CB  GLU A  12       3.405  29.509  12.430  0.00  0.00    +0.041 C 
BRANCH 101 102
ATOM    102  CG  GLU A  12       2.553  28.726  11.530  0.00  0.00    +0.116 C 
BRANCH 102 103
ATOM    103  CD  GLU A  12       1.226  28.412  12.160  0.00  0.00    +0.365 C 
ATOM    104  OE2 GLU A  12       1.088  28.583  13.396  0.00  0.00    -0.246 OA
ATOM    105  OE1 GLU A  12       0.305  27.985  11.437  0.00  0.00    -0.246 OA
ENDBRANCH 102 103
ENDBRANCH 101 102
ENDBRANCH  89 101
ENDBRANCH  86  89
ENDBRANCH  84  85
BRANCH  84 106
ATOM    106  CB  VAL A  11       7.608  25.949  10.454  0.00  0.00    +0.027 C 
ATOM    107  CG2 VAL A  11       8.098  26.396  11.752  0.00  0.00    +0.002 C 
ATOM    108  CG1 VAL A  11       7.838  24.438  10.287  0.00  0.00    +0.002 C 
ENDBRANCH  84 106
ENDBRANCH  82  84
ENDBRANCH  79  80
BRANCH  79 109
ATOM    109  CB  SER A  10       2.647  25.017   7.487  0.00  0.00    +0.166 C 
BRANCH 109 110
ATOM    110  OG  SER A  10       2.707  26.397   7.712  0.00  0.00    -0.380 OA
ATOM    111  H   SER A  10       3.303  26.814   7.040  0.00  0.00    +0.211 HD
ENDBRANCH 109 110
ENDBRANCH  79 109
ENDBRANCH  76  79
ENDBRANCH  74  75
ENDBRANCH  72  74
ENDBRANCH  69  70
BRANCH  69 112
ATOM    112  CB  PHE A   8       1.932  16.981   3.914  0.00  0.00    +0.055 C 
BRANCH 112 113
ATOM    113  CG  PHE A   8       1.500  16.480   2.570  0.00  0.00    -0.020 A 
ATOM    114  CD2 PHE A   8       0.175  16.239   2.311  0.00  0.00    -0.004 A 
ATOM    115  CE2 PHE A   8      -0.230  15.786   1.070  0.00  0.00    -0.000 A 
ATOM    116  CZ  PHE A   8       0.680  15.607   0.078  0.00  0.00    -0.000 A 
ATOM    117  CE1 PHE A   8       2.021  15.857   0.320  0.00  0.00    -0.000 A 
ATOM    118  CD1 PHE A   8       2.421  16.302   1.558  0.00  0.00    -0.004 A 
ENDBRANCH 112 113
ENDBRANCH  69 112
ENDBRANCH  66  69
ENDBRANCH  64  65
BRANCH  64 119
ATOM    119  CB  ASN A   7       4.197  19.217   0.686  0.00  0.00    +0.114 C 
BRANCH 119 120
ATOM    120  CG  ASN A   7       5.588  19.337   1.394  0.00  0.00    +0.222 C 
ATOM    121  OD1 ASN A   7       5.728  19.078   2.603  0.00  0.00    -0.275 OA
ATOM    122  ND2 ASN A   7       6.595  19.765   0.639  0.00  0.00    -0.329 N 
ATOM    123 HD21 ASN A   7       7.539  19.894   1.056  0.00  0.00    +0.145 HD
ATOM    124 HD22 ASN A   7       6.439  19.971  -0.368  0.00  0.00    +0.145 HD
ENDBRANCH 119 120
ENDBRANCH  64 119
ENDBRANCH   2  64
TORSDOF 53
REMARK  Name = ../refined-set-2016/4e6q/4e6q_pocket.pdb
REMARK  233 active torsions:
REMARK  status: ('A' for Active; 'I' for Inactive)
REMARK    1  A    between atoms: _1  and  _3
REMARK    2  A    between atoms: _3  and  _4
REMARK    3  A    between atoms: _3  and  _6
REMARK    4  A    between atoms: _6  and  _7
REMARK    5  A    between atoms: _7  and  _8
REMARK    6  A    between atoms: _8  and  _9
REMARK    7  A    between atoms: _18  and  _20
REMARK    8  A    between atoms: _20  and  _21
REMARK    9  A    between atoms: _20  and  _23
REMARK   10  A    between atoms: _23  and  _24
REMARK   11  A    between atoms: _24  and  _25
REMARK   12  A    between atoms: _30  and  _32
REMARK   13  A    between atoms: _32  and  _33
REMARK   14  A    between atoms: _32  and  _35
REMARK   15  A    between atoms: _35  and  _36
REMARK   16  A    between atoms: _39  and  _41
REMARK   17  A    between atoms: _41  and  _42
REMARK   18  A    between atoms: _44  and  _46
REMARK   19  A    between atoms: _46  and  _47
REMARK   20  A    between atoms: _46  and  _49
REMARK   21  A    between atoms: _49  and  _50
REMARK   22  A    between atoms: _50  and  _51
REMARK   23  A    between atoms: _51  and  _52
REMARK   24  A    between atoms: _52  and  _53
REMARK   25  A    between atoms: _57  and  _59
REMARK   26  A    between atoms: _59  and  _60
REMARK   27  A    between atoms: _62  and  _64
REMARK   28  A    between atoms: _64  and  _65
REMARK   29  A    between atoms: _64  and  _67
REMARK   30  A    between atoms: _67  and  _68
REMARK   31  A    between atoms: _73  and  _75
REMARK   32  A    between atoms: _75  and  _76
REMARK   33  A    between atoms: _75  and  _78
REMARK   34  A    between atoms: _78  and  _79
REMARK   35  A    between atoms: _85  and  _87
REMARK   36  A    between atoms: _87  and  _88
REMARK   37  A    between atoms: _90  and  _92
REMARK   38  A    between atoms: _92  and  _93
REMARK   39  A    between atoms: _92  and  _95
REMARK   40  A    between atoms: _95  and  _96
REMARK   41  A    between atoms: _98  and  _100
REMARK   42  A    between atoms: _100  and  _101
REMARK   43  A    between atoms: _100  and  _103
REMARK   44  A    between atoms: _106  and  _108
REMARK   45  A    between atoms: _108  and  _109
REMARK   46  A    between atoms: _108  and  _111
REMARK   47  A    between atoms: _111  and  _112
REMARK   48  A    between atoms: _112  and  _113
REMARK   49  A    between atoms: _116  and  _118
REMARK   50  A    between atoms: _118  and  _119
REMARK   51  A    between atoms: _118  and  _121
REMARK   52  A    between atoms: _121  and  _122
REMARK   53  A    between atoms: _122  and  _123
REMARK   54  A    between atoms: _125  and  _127
REMARK   55  A    between atoms: _127  and  _128
REMARK   56  A    between atoms: _127  and  _130
REMARK   57  A    between atoms: _133  and  _135
REMARK   58  A    between atoms: _135  and  _136
REMARK   59  A    between atoms: _135  and  _138
REMARK   60  A    between atoms: _141  and  _143
REMARK   61  A    between atoms: _143  and  _144
REMARK   62  A    between atoms: _147  and  _149
REMARK   63  A    between atoms: _149  and  _150
REMARK   64  A    between atoms: _149  and  _152
REMARK   65  A    between atoms: _155  and  _157
REMARK   66  A    between atoms: _157  and  _158
REMARK   67  A    between atoms: _157  and  _160
REMARK   68  A    between atoms: _160  and  _161
REMARK   69  A    between atoms: _161  and  _162
REMARK   70  A    between atoms: _162  and  _163
REMARK   71  A    between atoms: _163  and  _164
REMARK   72  A    between atoms: _168  and  _170
REMARK   73  A    between atoms: _170  and  _171
REMARK   74  A    between atoms: _170  and  _173
REMARK   75  A    between atoms: _173  and  _174
REMARK   76  A    between atoms: _174  and  _175
REMARK   77  A    between atoms: _175  and  _176
REMARK   78  A    between atoms: _176  and  _177
REMARK   79  A    between atoms: _181  and  _183
REMARK   80  A    between atoms: _183  and  _184
REMARK   81  A    between atoms: _183  and  _186
REMARK   82  A    between atoms: _186  and  _187
REMARK   83  A    between atoms: _190  and  _192
REMARK   84  A    between atoms: _192  and  _193
REMARK   85  A    between atoms: _192  and  _195
REMARK   86  A    between atoms: _195  and  _196
REMARK   87  A    between atoms: _196  and  _197
REMARK   88  A    between atoms: _202  and  _204
REMARK   89  A    between atoms: _204  and  _205
REMARK   90  A    between atoms: _204  and  _207
REMARK   91  A    between atoms: _207  and  _208
REMARK   92  A    between atoms: _214  and  _216
REMARK   93  A    between atoms: _216  and  _217
REMARK   94  A    between atoms: _216  and  _219
REMARK   95  A    between atoms: _219  and  _220
REMARK   96  A    between atoms: _220  and  _221
REMARK   97  A    between atoms: _224  and  _226
REMARK   98  A    between atoms: _226  and  _227
REMARK   99  A    between atoms: _226  and  _229
REMARK  100  A    between atoms: _229  and  _230
REMARK  101  A    between atoms: _233  and  _235
REMARK  102  A    between atoms: _235  and  _236
REMARK  103  A    between atoms: _235  and  _238
REMARK  104  A    between atoms: _241  and  _243
REMARK  105  A    between atoms: _243  and  _244
REMARK  106  A    between atoms: _243  and  _246
REMARK  107  A    between atoms: _246  and  _247
REMARK  108  A    between atoms: _247  and  _248
REMARK  109  A    between atoms: _248  and  _249
REMARK  110  A    between atoms: _249  and  _250
REMARK  111  A    between atoms: _254  and  _256
REMARK  112  A    between atoms: _256  and  _257
REMARK  113  A    between atoms: _256  and  _259
REMARK  114  A    between atoms: _259  and  _260
REMARK  115  A    between atoms: _260  and  _261
REMARK  116  A    between atoms: _261  and  _262
REMARK  117  A    between atoms: _262  and  _263
REMARK  118  A    between atoms: _267  and  _269
REMARK  119  A    between atoms: _269  and  _270
REMARK  120  A    between atoms: _269  and  _272
REMARK  121  A    between atoms: _272  and  _273
REMARK  122  A    between atoms: _276  and  _278
REMARK  123  A    between atoms: _278  and  _279
REMARK  124  A    between atoms: _278  and  _281
REMARK  125  A    between atoms: _281  and  _282
REMARK  126  A    between atoms: _285  and  _287
REMARK  127  A    between atoms: _287  and  _288
REMARK  128  A    between atoms: _287  and  _290
REMARK  129  A    between atoms: _290  and  _291
REMARK  130  A    between atoms: _291  and  _292
REMARK  131  A    between atoms: _294  and  _296
REMARK  132  A    between atoms: _296  and  _297
REMARK  133  A    between atoms: _296  and  _299
REMARK  134  A    between atoms: _299  and  _300
REMARK  135  A    between atoms: _300  and  _301
REMARK  136  A    between atoms: _304  and  _306
REMARK  137  A    between atoms: _306  and  _307
REMARK  138  A    between atoms: _306  and  _309
REMARK  139  A    between atoms: _309  and  _310
REMARK  140  A    between atoms: _316  and  _318
REMARK  141  A    between atoms: _318  and  _319
REMARK  142  A    between atoms: _318  and  _321
REMARK  143  A    between atoms: _321  and  _322
REMARK  144  A    between atoms: _326  and  _327
REMARK  145  A    between atoms: _332  and  _334
REMARK  146  A    between atoms: _334  and  _335
REMARK  147  A    between atoms: _334  and  _337
REMARK  148  A    between atoms: _337  and  _338
REMARK  149  A    between atoms: _343  and  _344
REMARK  150  A    between atoms: _346  and  _348
REMARK  151  A    between atoms: _348  and  _349
REMARK  152  A    between atoms: _351  and  _353
REMARK  153  A    between atoms: _353  and  _354
REMARK  154  A    between atoms: _353  and  _356
REMARK  155  A    between atoms: _356  and  _357
REMARK  156  A    between atoms: _359  and  _361
REMARK  157  A    between atoms: _361  and  _362
REMARK  158  A    between atoms: _361  and  _364
REMARK  159  A    between atoms: _364  and  _365
REMARK  160  A    between atoms: _368  and  _370
REMARK  161  A    between atoms: _370  and  _371
REMARK  162  A    between atoms: _370  and  _373
REMARK  163  A    between atoms: _373  and  _374
REMARK  164  A    between atoms: _374  and  _375
REMARK  165  A    between atoms: _375  and  _376
REMARK  166  A    between atoms: _385  and  _387
REMARK  167  A    between atoms: _387  and  _388
REMARK  168  A    between atoms: _387  and  _390
REMARK  169  A    between atoms: _390  and  _391
REMARK  170  A    between atoms: _391  and  _392
REMARK  171  A    between atoms: _395  and  _397
REMARK  172  A    between atoms: _397  and  _398
REMARK  173  A    between atoms: _397  and  _400
REMARK  174  A    between atoms: _400  and  _401
REMARK  175  A    between atoms: _404  and  _406
REMARK  176  A    between atoms: _406  and  _407
REMARK  177  A    between atoms: _410  and  _412
REMARK  178  A    between atoms: _412  and  _413
REMARK  179  A    between atoms: _412  and  _415
REMARK  180  A    between atoms: _415  and  _416
REMARK  181  A    between atoms: _419  and  _421
REMARK  182  A    between atoms: _421  and  _422
REMARK  183  A    between atoms: _421  and  _424
REMARK  184  A    between atoms: _424  and  _425
REMARK  185  A    between atoms: _425  and  _426
REMARK  186  A    between atoms: _426  and  _427
REMARK  187  A    between atoms: _436  and  _438
REMARK  188  A    between atoms: _438  and  _439
REMARK  189  A    between atoms: _438  and  _441
REMARK  190  A    between atoms: _441  and  _442
REMARK  191  A    between atoms: _447  and  _449
REMARK  192  A    between atoms: _449  and  _450
REMARK  193  A    between atoms: _449  and  _452
REMARK  194  A    between atoms: _452  and  _453
REMARK  195  A    between atoms: _456  and  _458
REMARK  196  A    between atoms: _458  and  _459
REMARK  197  A    between atoms: _458  and  _461
REMARK  198  A    between atoms: _461  and  _462
REMARK  199  A    between atoms: _465  and  _467
REMARK  200  A    between atoms: _467  and  _468
REMARK  201  A    between atoms: _467  and  _470
REMARK  202  A    between atoms: _473  and  _475
REMARK  203  A    between atoms: _475  and  _476
REMARK  204  A    between atoms: _475  and  _478
REMARK  205  A    between atoms: _478  and  _479
REMARK  206  A    between atoms: _479  and  _480
REMARK  207  A    between atoms: _483  and  _485
REMARK  208  A    between atoms: _485  and  _486
REMARK  209  A    between atoms: _485  and  _488
REMARK  210  A    between atoms: _488  and  _489
REMARK  211  A    between atoms: _489  and  _490
REMARK  212  A    between atoms: _490  and  _491
REMARK  213  A    between atoms: _491  and  _492
REMARK  214  A    between atoms: _496  and  _498
REMARK  215  A    between atoms: _498  and  _499
REMARK  216  A    between atoms: _498  and  _501
REMARK  217  A    between atoms: _501  and  _502
REMARK  218  A    between atoms: _505  and  _507
REMARK  219  A    between atoms: _507  and  _508
REMARK  220  A    between atoms: _510  and  _512
REMARK  221  A    between atoms: _512  and  _513
REMARK  222  A    between atoms: _512  and  _515
REMARK  223  A    between atoms: _515  and  _516
REMARK  224  A    between atoms: _519  and  _521
REMARK  225  A    between atoms: _521  and  _522
REMARK  226  A    between atoms: _521  and  _524
REMARK  227  A    between atoms: _524  and  _525
REMARK  228  A    between atoms: _531  and  _533
REMARK  229  A    between atoms: _533  and  _534
REMARK  230  A    between atoms: _536  and  _538
REMARK  231  A    between atoms: _538  and  _539
REMARK  232  A    between atoms: _538  and  _541
REMARK  233  A    between atoms: _541  and  _542
REMARK                            x       y       z     vdW  Elec       q    Type
REMARK                         _______ _______ _______ _____ _____    ______ ____
ROOT
ATOM      1  CA  LYS A   5       4.907  23.045  13.048  0.00  0.00    +0.149 C 
ENDROOT
BRANCH   1   2
ATOM      2  C   LYS A   5       3.527  22.351  13.088  0.00  0.00    +0.241 C 
ATOM      3  O   LYS A   5       3.109  21.762  14.108  0.00  0.00    -0.273 OA
ATOM      4  N   LYS A   6       2.848  22.337  11.965  0.00  0.00    -0.297 N 
ATOM      5  H   LYS A   6       3.218  22.796  11.109  0.00  0.00    +0.150 HD
BRANCH   4   6
ATOM      6  CA  LYS A   6       1.584  21.671  11.956  0.00  0.00    +0.149 C 
BRANCH   6   7
ATOM      7  C   LYS A   6       1.477  20.941  10.648  0.00  0.00    +0.241 C 
ATOM      8  N   LEU A   7       0.515  20.034  10.541  0.00  0.00    -0.297 N 
ATOM      9  H   LEU A   7      -0.037  19.784  11.386  0.00  0.00    +0.150 HD
ATOM     10  O   LYS A   6       2.283  21.175   9.739  0.00  0.00    -0.273 OA
BRANCH   8  11
ATOM     11  CA  LEU A   7       0.203  19.367   9.260  0.00  0.00    +0.149 C 
BRANCH  11  12
ATOM     12  C   LEU A   7      -0.844  20.107   8.437  0.00  0.00    +0.241 C 
ATOM     13  O   LEU A   7      -1.797  20.679   8.987  0.00  0.00    -0.273 OA
ATOM     14  N   GLN A   8      -0.707  20.035   7.115  0.00  0.00    -0.298 N 
ATOM     15  H   GLN A   8       0.160  19.621   6.716  0.00  0.00    +0.150 HD
BRANCH  14  16
ATOM     16  CA  GLN A   8      -1.747  20.524   6.210  0.00  0.00    +0.137 C 
BRANCH  16  17
ATOM     17  C   GLN A   8      -2.040  19.430   5.162  0.00  0.00    +0.227 C 
ATOM     18  O   GLN A   8      -1.117  18.821   4.652  0.00  0.00    -0.286 OA
ENDBRANCH  16  17
BRANCH  16  19
ATOM     19  CB  GLN A   8      -1.270  21.816   5.542  0.00  0.00    +0.037 C 
BRANCH  19  20
ATOM     20  CG  GLN A   8      -1.299  23.063   6.443  0.00  0.00    +0.087 C 
BRANCH  20  21
ATOM     21  CD  GLN A   8      -0.504  24.230   5.855  0.00  0.00    +0.219 C 
ATOM     22  OE1 GLN A   8      -0.325  25.240   6.512  0.00  0.00    -0.275 OA
ATOM     23  NE2 GLN A   8      -0.044  24.098   4.604  0.00  0.00    -0.329 N 
ATOM     24 HE21 GLN A   8       0.487  24.874   4.161  0.00  0.00    +0.145 HD
ATOM     25 HE22 GLN A   8      -0.218  23.219   4.076  0.00  0.00    +0.145 HD
ENDBRANCH  20  21
ENDBRANCH  19  20
ENDBRANCH  16  19
ENDBRANCH  14  16
ENDBRANCH  11  12
BRANCH  11  26
ATOM     26  CB  LEU A   7      -0.307  17.923   9.482  0.00  0.00    +0.029 C 
BRANCH  26  27
ATOM     27  CG  LEU A   7       0.654  16.912  10.145  0.00  0.00    +0.002 C 
ATOM     28  CD2 LEU A   7       0.097  15.493   9.996  0.00  0.00    +0.000 C 
ATOM     29  CD1 LEU A   7       2.066  16.998   9.603  0.00  0.00    +0.000 C 
ENDBRANCH  26  27
ENDBRANCH  11  26
ENDBRANCH   8  11
ENDBRANCH   6   7
BRANCH   6  30
ATOM     30  CB  LYS A   6       0.498  22.743  12.052  0.00  0.00    +0.029 C 
BRANCH  30  31
ATOM     31  CG  LYS A   6       0.395  23.585  10.814  0.00  0.00    +0.000 C 
BRANCH  31  32
ATOM     32  CD  LYS A   6      -0.352  24.893  11.087  0.00  0.00    -0.024 C 
BRANCH  32  33
ATOM     33  CE  LYS A   6      -0.567  25.672   9.780  0.00  0.00    -0.086 C 
BRANCH  33  34
ATOM     34  NZ  LYS A   6      -1.424  26.898   9.898  0.00  0.00    +0.380 N 
ATOM     35  HZ1 LYS A   6      -0.987  27.561  10.569  0.00  0.00    -0.089 HD
ATOM     36  HZ2 LYS A   6      -2.368  26.628  10.240  0.00  0.00    -0.089 HD
ATOM     37  HZ3 LYS A   6      -1.508  27.352   8.966  0.00  0.00    -0.089 HD
ENDBRANCH  33  34
ENDBRANCH  32  33
ENDBRANCH  31  32
ENDBRANCH  30  31
ENDBRANCH   6  30
ENDBRANCH   4   6
ENDBRANCH   1   2
BRANCH   1  39
ATOM     38  C   VAL A   4       4.958  25.133  14.335  0.00  0.00    +0.241 C 
ATOM     39  N   LYS A   5       5.151  23.816  14.281  0.00  0.00    -0.297 N 
ATOM     40  H   LYS A   5       5.483  23.318  15.132  0.00  0.00    +0.150 HD
ATOM     41  O   VAL A   4       4.668  25.795  13.321  0.00  0.00    -0.273 OA
BRANCH  38  42
ATOM     42  CA  VAL A   4       5.108  25.810  15.714  0.00  0.00    +0.149 C 
BRANCH  42  45
ATOM     43  C   ALA A   3       7.245  26.821  16.463  0.00  0.00    +0.241 C 
ATOM     44  O   ALA A   3       7.566  25.921  17.212  0.00  0.00    -0.273 OA
ATOM     45  N   VAL A   4       6.128  26.842  15.717  0.00  0.00    -0.297 N 
ATOM     46  H   VAL A   4       5.983  27.661  15.093  0.00  0.00    +0.150 HD
BRANCH  43  47
ATOM     47  CA  ALA A   3       8.118  28.047  16.406  0.00  0.00    +0.149 C 
ATOM     48  CB  ALA A   3       9.405  27.755  15.581  0.00  0.00    +0.031 C 
BRANCH  47  50
ATOM     49  C   VAL A   2       7.949  29.632  18.268  0.00  0.00    +0.241 C 
ATOM     50  N   ALA A   3       8.411  28.477  17.769  0.00  0.00    -0.297 N 
ATOM     51  H   ALA A   3       8.998  27.867  18.373  0.00  0.00    +0.150 HD
ATOM     52  O   VAL A   2       7.329  30.483  17.595  0.00  0.00    -0.273 OA
BRANCH  49  53
ATOM     53  CA  VAL A   2       8.214  29.868  19.729  0.00  0.00    +0.148 C 
BRANCH  53  56
ATOM     54  C   VAL A   1       8.738  32.061  20.785  0.00  0.00    +0.238 C 
ATOM     55  O   VAL A   1       9.887  31.709  21.159  0.00  0.00    -0.274 OA
ATOM     56  N   VAL A   2       7.890  31.261  20.101  0.00  0.00    -0.297 N 
ATOM     57  H   VAL A   2       6.964  31.645  19.823  0.00  0.00    +0.150 HD
BRANCH  54  58
ATOM     58  CA  VAL A   1       8.229  33.475  21.099  0.00  0.00    +0.145 C 
BRANCH  58  59
ATOM     59  CB  VAL A   1       9.015  34.485  20.326  0.00  0.00    +0.025 C 
ATOM     60  CG2 VAL A   1       8.617  35.881  20.799  0.00  0.00    +0.002 C 
ATOM     61  CG1 VAL A   1       8.779  34.325  18.858  0.00  0.00    +0.002 C 
ENDBRANCH  58  59
BRANCH  58  62
ATOM     62  N   VAL A   1       8.353  33.714  22.537  0.00  0.00    -0.238 NA
ATOM     63  H   VAL A   1       9.099  34.361  22.863  0.00  0.00    +0.142 HD
ENDBRANCH  58  62
ENDBRANCH  54  58
ENDBRANCH  53  56
BRANCH  53  64
ATOM     64  CB  VAL A   2       7.418  28.777  20.522  0.00  0.00    +0.027 C 
ATOM     65  CG2 VAL A   2       7.761  28.734  22.002  0.00  0.00    +0.002 C 
ATOM     66  CG1 VAL A   2       5.886  28.893  20.298  0.00  0.00    +0.002 C 
ENDBRANCH  53  64
ENDBRANCH  49  53
ENDBRANCH  47  50
ENDBRANCH  43  47
ENDBRANCH  42  45
BRANCH  42  67
ATOM     67  CB  VAL A   4       3.736  26.409  16.114  0.00  0.00    +0.027 C 
ATOM     68  CG2 VAL A   4       3.830  27.087  17.470  0.00  0.00    +0.002 C 
ATOM     69  CG1 VAL A   4       2.644  25.366  16.143  0.00  0.00    +0.002 C 
ENDBRANCH  42  67
ENDBRANCH  38  42
ENDBRANCH   1  39
BRANCH   1  70
ATOM     70  CB  LYS A   5       6.034  21.994  12.824  0.00  0.00    +0.029 C 
BRANCH  70  71
ATOM     71  CG  LYS A   5       5.836  21.147  11.530  0.00  0.00    +0.000 C 
BRANCH  71  72
ATOM     72  CD  LYS A   5       7.195  20.562  11.181  0.00  0.00    -0.024 C 
BRANCH  72  73
ATOM     73  CE  LYS A   5       7.236  19.936   9.831  0.00  0.00    -0.086 C 
BRANCH  73  74
ATOM     74  NZ  LYS A   5       8.595  19.322   9.805  0.00  0.00    +0.380 N 
ATOM     75  HZ1 LYS A   5       8.676  18.628  10.576  0.00  0.00    -0.089 HD
ATOM     76  HZ2 LYS A   5       9.312  20.065   9.929  0.00  0.00    -0.089 HD
ATOM     77  HZ3 LYS A   5       8.742  18.846   8.892  0.00  0.00    -0.089 HD
ENDBRANCH  73  74
ENDBRANCH  72  73
ENDBRANCH  71  72
ENDBRANCH  70  71
ENDBRANCH   1  70
TORSDOF 34
REMARK  Name = ../refined-set-2016/4e6q/4e6q_pocket.pdb
REMARK  233 active torsions:
REMARK  status: ('A' for Active; 'I' for Inactive)
REMARK    1  A    between atoms: _1  and  _3
REMARK    2  A    between atoms: _3  and  _4
REMARK    3  A    between atoms: _3  and  _6
REMARK    4  A    between atoms: _6  and  _7
REMARK    5  A    between atoms: _7  and  _8
REMARK    6  A    between atoms: _8  and  _9
REMARK    7  A    between atoms: _18  and  _20
REMARK    8  A    between atoms: _20  and  _21
REMARK    9  A    between atoms: _20  and  _23
REMARK   10  A    between atoms: _23  and  _24
REMARK   11  A    between atoms: _24  and  _25
REMARK   12  A    between atoms: _30  and  _32
REMARK   13  A    between atoms: _32  and  _33
REMARK   14  A    between atoms: _32  and  _35
REMARK   15  A    between atoms: _35  and  _36
REMARK   16  A    between atoms: _39  and  _41
REMARK   17  A    between atoms: _41  and  _42
REMARK   18  A    between atoms: _44  and  _46
REMARK   19  A    between atoms: _46  and  _47
REMARK   20  A    between atoms: _46  and  _49
REMARK   21  A    between atoms: _49  and  _50
REMARK   22  A    between atoms: _50  and  _51
REMARK   23  A    between atoms: _51  and  _52
REMARK   24  A    between atoms: _52  and  _53
REMARK   25  A    between atoms: _57  and  _59
REMARK   26  A    between atoms: _59  and  _60
REMARK   27  A    between atoms: _62  and  _64
REMARK   28  A    between atoms: _64  and  _65
REMARK   29  A    between atoms: _64  and  _67
REMARK   30  A    between atoms: _67  and  _68
REMARK   31  A    between atoms: _73  and  _75
REMARK   32  A    between atoms: _75  and  _76
REMARK   33  A    between atoms: _75  and  _78
REMARK   34  A    between atoms: _78  and  _79
REMARK   35  A    between atoms: _85  and  _87
REMARK   36  A    between atoms: _87  and  _88
REMARK   37  A    between atoms: _90  and  _92
REMARK   38  A    between atoms: _92  and  _93
REMARK   39  A    between atoms: _92  and  _95
REMARK   40  A    between atoms: _95  and  _96
REMARK   41  A    between atoms: _98  and  _100
REMARK   42  A    between atoms: _100  and  _101
REMARK   43  A    between atoms: _100  and  _103
REMARK   44  A    between atoms: _106  and  _108
REMARK   45  A    between atoms: _108  and  _109
REMARK   46  A    between atoms: _108  and  _111
REMARK   47  A    between atoms: _111  and  _112
REMARK   48  A    between atoms: _112  and  _113
REMARK   49  A    between atoms: _116  and  _118
REMARK   50  A    between atoms: _118  and  _119
REMARK   51  A    between atoms: _118  and  _121
REMARK   52  A    between atoms: _121  and  _122
REMARK   53  A    between atoms: _122  and  _123
REMARK   54  A    between atoms: _125  and  _127
REMARK   55  A    between atoms: _127  and  _128
REMARK   56  A    between atoms: _127  and  _130
REMARK   57  A    between atoms: _133  and  _135
REMARK   58  A    between atoms: _135  and  _136
REMARK   59  A    between atoms: _135  and  _138
REMARK   60  A    between atoms: _141  and  _143
REMARK   61  A    between atoms: _143  and  _144
REMARK   62  A    between atoms: _147  and  _149
REMARK   63  A    between atoms: _149  and  _150
REMARK   64  A    between atoms: _149  and  _152
REMARK   65  A    between atoms: _155  and  _157
REMARK   66  A    between atoms: _157  and  _158
REMARK   67  A    between atoms: _157  and  _160
REMARK   68  A    between atoms: _160  and  _161
REMARK   69  A    between atoms: _161  and  _162
REMARK   70  A    between atoms: _162  and  _163
REMARK   71  A    between atoms: _163  and  _164
REMARK   72  A    between atoms: _168  and  _170
REMARK   73  A    between atoms: _170  and  _171
REMARK   74  A    between atoms: _170  and  _173
REMARK   75  A    between atoms: _173  and  _174
REMARK   76  A    between atoms: _174  and  _175
REMARK   77  A    between atoms: _175  and  _176
REMARK   78  A    between atoms: _176  and  _177
REMARK   79  A    between atoms: _181  and  _183
REMARK   80  A    between atoms: _183  and  _184
REMARK   81  A    between atoms: _183  and  _186
REMARK   82  A    between atoms: _186  and  _187
REMARK   83  A    between atoms: _190  and  _192
REMARK   84  A    between atoms: _192  and  _193
REMARK   85  A    between atoms: _192  and  _195
REMARK   86  A    between atoms: _195  and  _196
REMARK   87  A    between atoms: _196  and  _197
REMARK   88  A    between atoms: _202  and  _204
REMARK   89  A    between atoms: _204  and  _205
REMARK   90  A    between atoms: _204  and  _207
REMARK   91  A    between atoms: _207  and  _208
REMARK   92  A    between atoms: _214  and  _216
REMARK   93  A    between atoms: _216  and  _217
REMARK   94  A    between atoms: _216  and  _219
REMARK   95  A    between atoms: _219  and  _220
REMARK   96  A    between atoms: _220  and  _221
REMARK   97  A    between atoms: _224  and  _226
REMARK   98  A    between atoms: _226  and  _227
REMARK   99  A    between atoms: _226  and  _229
REMARK  100  A    between atoms: _229  and  _230
REMARK  101  A    between atoms: _233  and  _235
REMARK  102  A    between atoms: _235  and  _236
REMARK  103  A    between atoms: _235  and  _238
REMARK  104  A    between atoms: _241  and  _243
REMARK  105  A    between atoms: _243  and  _244
REMARK  106  A    between atoms: _243  and  _246
REMARK  107  A    between atoms: _246  and  _247
REMARK  108  A    between atoms: _247  and  _248
REMARK  109  A    between atoms: _248  and  _249
REMARK  110  A    between atoms: _249  and  _250
REMARK  111  A    between atoms: _254  and  _256
REMARK  112  A    between atoms: _256  and  _257
REMARK  113  A    between atoms: _256  and  _259
REMARK  114  A    between atoms: _259  and  _260
REMARK  115  A    between atoms: _260  and  _261
REMARK  116  A    between atoms: _261  and  _262
REMARK  117  A    between atoms: _262  and  _263
REMARK  118  A    between atoms: _267  and  _269
REMARK  119  A    between atoms: _269  and  _270
REMARK  120  A    between atoms: _269  and  _272
REMARK  121  A    between atoms: _272  and  _273
REMARK  122  A    between atoms: _276  and  _278
REMARK  123  A    between atoms: _278  and  _279
REMARK  124  A    between atoms: _278  and  _281
REMARK  125  A    between atoms: _281  and  _282
REMARK  126  A    between atoms: _285  and  _287
REMARK  127  A    between atoms: _287  and  _288
REMARK  128  A    between atoms: _287  and  _290
REMARK  129  A    between atoms: _290  and  _291
REMARK  130  A    between atoms: _291  and  _292
REMARK  131  A    between atoms: _294  and  _296
REMARK  132  A    between atoms: _296  and  _297
REMARK  133  A    between atoms: _296  and  _299
REMARK  134  A    between atoms: _299  and  _300
REMARK  135  A    between atoms: _300  and  _301
REMARK  136  A    between atoms: _304  and  _306
REMARK  137  A    between atoms: _306  and  _307
REMARK  138  A    between atoms: _306  and  _309
REMARK  139  A    between atoms: _309  and  _310
REMARK  140  A    between atoms: _316  and  _318
REMARK  141  A    between atoms: _318  and  _319
REMARK  142  A    between atoms: _318  and  _321
REMARK  143  A    between atoms: _321  and  _322
REMARK  144  A    between atoms: _326  and  _327
REMARK  145  A    between atoms: _332  and  _334
REMARK  146  A    between atoms: _334  and  _335
REMARK  147  A    between atoms: _334  and  _337
REMARK  148  A    between atoms: _337  and  _338
REMARK  149  A    between atoms: _343  and  _344
REMARK  150  A    between atoms: _346  and  _348
REMARK  151  A    between atoms: _348  and  _349
REMARK  152  A    between atoms: _351  and  _353
REMARK  153  A    between atoms: _353  and  _354
REMARK  154  A    between atoms: _353  and  _356
REMARK  155  A    between atoms: _356  and  _357
REMARK  156  A    between atoms: _359  and  _361
REMARK  157  A    between atoms: _361  and  _362
REMARK  158  A    between atoms: _361  and  _364
REMARK  159  A    between atoms: _364  and  _365
REMARK  160  A    between atoms: _368  and  _370
REMARK  161  A    between atoms: _370  and  _371
REMARK  162  A    between atoms: _370  and  _373
REMARK  163  A    between atoms: _373  and  _374
REMARK  164  A    between atoms: _374  and  _375
REMARK  165  A    between atoms: _375  and  _376
REMARK  166  A    between atoms: _385  and  _387
REMARK  167  A    between atoms: _387  and  _388
REMARK  168  A    between atoms: _387  and  _390
REMARK  169  A    between atoms: _390  and  _391
REMARK  170  A    between atoms: _391  and  _392
REMARK  171  A    between atoms: _395  and  _397
REMARK  172  A    between atoms: _397  and  _398
REMARK  173  A    between atoms: _397  and  _400
REMARK  174  A    between atoms: _400  and  _401
REMARK  175  A    between atoms: _404  and  _406
REMARK  176  A    between atoms: _406  and  _407
REMARK  177  A    between atoms: _410  and  _412
REMARK  178  A    between atoms: _412  and  _413
REMARK  179  A    between atoms: _412  and  _415
REMARK  180  A    between atoms: _415  and  _416
REMARK  181  A    between atoms: _419  and  _421
REMARK  182  A    between atoms: _421  and  _422
REMARK  183  A    between atoms: _421  and  _424
REMARK  184  A    between atoms: _424  and  _425
REMARK  185  A    between atoms: _425  and  _426
REMARK  186  A    between atoms: _426  and  _427
REMARK  187  A    between atoms: _436  and  _438
REMARK  188  A    between atoms: _438  and  _439
REMARK  189  A    between atoms: _438  and  _441
REMARK  190  A    between atoms: _441  and  _442
REMARK  191  A    between atoms: _447  and  _449
REMARK  192  A    between atoms: _449  and  _450
REMARK  193  A    between atoms: _449  and  _452
REMARK  194  A    between atoms: _452  and  _453
REMARK  195  A    between atoms: _456  and  _458
REMARK  196  A    between atoms: _458  and  _459
REMARK  197  A    between atoms: _458  and  _461
REMARK  198  A    between atoms: _461  and  _462
REMARK  199  A    between atoms: _465  and  _467
REMARK  200  A    between atoms: _467  and  _468
REMARK  201  A    between atoms: _467  and  _470
REMARK  202  A    between atoms: _473  and  _475
REMARK  203  A    between atoms: _475  and  _476
REMARK  204  A    between atoms: _475  and  _478
REMARK  205  A    between atoms: _478  and  _479
REMARK  206  A    between atoms: _479  and  _480
REMARK  207  A    between atoms: _483  and  _485
REMARK  208  A    between atoms: _485  and  _486
REMARK  209  A    between atoms: _485  and  _488
REMARK  210  A    between atoms: _488  and  _489
REMARK  211  A    between atoms: _489  and  _490
REMARK  212  A    between atoms: _490  and  _491
REMARK  213  A    between atoms: _491  and  _492
REMARK  214  A    between atoms: _496  and  _498
REMARK  215  A    between atoms: _498  and  _499
REMARK  216  A    between atoms: _498  and  _501
REMARK  217  A    between atoms: _501  and  _502
REMARK  218  A    between atoms: _505  and  _507
REMARK  219  A    between atoms: _507  and  _508
REMARK  220  A    between atoms: _510  and  _512
REMARK  221  A    between atoms: _512  and  _513
REMARK  222  A    between atoms: _512  and  _515
REMARK  223  A    between atoms: _515  and  _516
REMARK  224  A    between atoms: _519  and  _521
REMARK  225  A    between atoms: _521  and  _522
REMARK  226  A    between atoms: _521  and  _524
REMARK  227  A    between atoms: _524  and  _525
REMARK  228  A    between atoms: _531  and  _533
REMARK  229  A    between atoms: _533  and  _534
REMARK  230  A    between atoms: _536  and  _538
REMARK  231  A    between atoms: _538  and  _539
REMARK  232  A    between atoms: _538  and  _541
REMARK  233  A    between atoms: _541  and  _542
REMARK                            x       y       z     vdW  Elec       q    Type
REMARK                         _______ _______ _______ _____ _____    ______ ____
ROOT
ATOM      1  CB  PHE A   1       3.073  14.371  12.523  0.00  0.00    +0.051 C 
ENDROOT
BRANCH   1   2
ATOM      2  CG  PHE A   1       3.349  15.800  12.950  0.00  0.00    -0.020 A 
ATOM      3  CD2 PHE A   1       2.332  16.587  13.478  0.00  0.00    -0.004 A 
ATOM      4  CE2 PHE A   1       2.587  17.877  13.875  0.00  0.00    -0.000 A 
ATOM      5  CZ  PHE A   1       3.811  18.416  13.783  0.00  0.00    -0.000 A 
ATOM      6  CE1 PHE A   1       4.844  17.680  13.277  0.00  0.00    -0.000 A 
ATOM      7  CD1 PHE A   1       4.633  16.375  12.843  0.00  0.00    -0.004 A 
ENDBRANCH   1   2
BRANCH   1   8
ATOM      8  CA  PHE A   1       4.272  13.454  12.633  0.00  0.00    +0.137 C 
BRANCH   8   9
ATOM      9  N   PHE A   1       4.026  12.235  11.857  0.00  0.00    -0.239 NA
ATOM     10  H   PHE A   1       3.093  12.064  11.431  0.00  0.00    +0.142 HD
ENDBRANCH   8   9
BRANCH   8  11
ATOM     11  C   PHE A   1       4.557  13.036  14.085  0.00  0.00    +0.224 C 
ATOM     12  O   PHE A   1       5.507  13.507  14.680  0.00  0.00    -0.287 OA
ENDBRANCH   8  11
ENDBRANCH   1   8
TORSDOF 4
REMARK  Name = ../refined-set-2016/4e6q/4e6q_pocket.pdb
REMARK  233 active torsions:
REMARK  status: ('A' for Active; 'I' for Inactive)
REMARK    1  A    between atoms: _1  and  _3
REMARK    2  A    between atoms: _3  and  _4
REMARK    3  A    between atoms: _3  and  _6
REMARK    4  A    between atoms: _6  and  _7
REMARK    5  A    between atoms: _7  and  _8
REMARK    6  A    between atoms: _8  and  _9
REMARK    7  A    between atoms: _18  and  _20
REMARK    8  A    between atoms: _20  and  _21
REMARK    9  A    between atoms: _20  and  _23
REMARK   10  A    between atoms: _23  and  _24
REMARK   11  A    between atoms: _24  and  _25
REMARK   12  A    between atoms: _30  and  _32
REMARK   13  A    between atoms: _32  and  _33
REMARK   14  A    between atoms: _32  and  _35
REMARK   15  A    between atoms: _35  and  _36
REMARK   16  A    between atoms: _39  and  _41
REMARK   17  A    between atoms: _41  and  _42
REMARK   18  A    between atoms: _44  and  _46
REMARK   19  A    between atoms: _46  and  _47
REMARK   20  A    between atoms: _46  and  _49
REMARK   21  A    between atoms: _49  and  _50
REMARK   22  A    between atoms: _50  and  _51
REMARK   23  A    between atoms: _51  and  _52
REMARK   24  A    between atoms: _52  and  _53
REMARK   25  A    between atoms: _57  and  _59
REMARK   26  A    between atoms: _59  and  _60
REMARK   27  A    between atoms: _62  and  _64
REMARK   28  A    between atoms: _64  and  _65
REMARK   29  A    between atoms: _64  and  _67
REMARK   30  A    between atoms: _67  and  _68
REMARK   31  A    between atoms: _73  and  _75
REMARK   32  A    between atoms: _75  and  _76
REMARK   33  A    between atoms: _75  and  _78
REMARK   34  A    between atoms: _78  and  _79
REMARK   35  A    between atoms: _85  and  _87
REMARK   36  A    between atoms: _87  and  _88
REMARK   37  A    between atoms: _90  and  _92
REMARK   38  A    between atoms: _92  and  _93
REMARK   39  A    between atoms: _92  and  _95
REMARK   40  A    between atoms: _95  and  _96
REMARK   41  A    between atoms: _98  and  _100
REMARK   42  A    between atoms: _100  and  _101
REMARK   43  A    between atoms: _100  and  _103
REMARK   44  A    between atoms: _106  and  _108
REMARK   45  A    between atoms: _108  and  _109
REMARK   46  A    between atoms: _108  and  _111
REMARK   47  A    between atoms: _111  and  _112
REMARK   48  A    between atoms: _112  and  _113
REMARK   49  A    between atoms: _116  and  _118
REMARK   50  A    between atoms: _118  and  _119
REMARK   51  A    between atoms: _118  and  _121
REMARK   52  A    between atoms: _121  and  _122
REMARK   53  A    between atoms: _122  and  _123
REMARK   54  A    between atoms: _125  and  _127
REMARK   55  A    between atoms: _127  and  _128
REMARK   56  A    between atoms: _127  and  _130
REMARK   57  A    between atoms: _133  and  _135
REMARK   58  A    between atoms: _135  and  _136
REMARK   59  A    between atoms: _135  and  _138
REMARK   60  A    between atoms: _141  and  _143
REMARK   61  A    between atoms: _143  and  _144
REMARK   62  A    between atoms: _147  and  _149
REMARK   63  A    between atoms: _149  and  _150
REMARK   64  A    between atoms: _149  and  _152
REMARK   65  A    between atoms: _155  and  _157
REMARK   66  A    between atoms: _157  and  _158
REMARK   67  A    between atoms: _157  and  _160
REMARK   68  A    between atoms: _160  and  _161
REMARK   69  A    between atoms: _161  and  _162
REMARK   70  A    between atoms: _162  and  _163
REMARK   71  A    between atoms: _163  and  _164
REMARK   72  A    between atoms: _168  and  _170
REMARK   73  A    between atoms: _170  and  _171
REMARK   74  A    between atoms: _170  and  _173
REMARK   75  A    between atoms: _173  and  _174
REMARK   76  A    between atoms: _174  and  _175
REMARK   77  A    between atoms: _175  and  _176
REMARK   78  A    between atoms: _176  and  _177
REMARK   79  A    between atoms: _181  and  _183
REMARK   80  A    between atoms: _183  and  _184
REMARK   81  A    between atoms: _183  and  _186
REMARK   82  A    between atoms: _186  and  _187
REMARK   83  A    between atoms: _190  and  _192
REMARK   84  A    between atoms: _192  and  _193
REMARK   85  A    between atoms: _192  and  _195
REMARK   86  A    between atoms: _195  and  _196
REMARK   87  A    between atoms: _196  and  _197
REMARK   88  A    between atoms: _202  and  _204
REMARK   89  A    between atoms: _204  and  _205
REMARK   90  A    between atoms: _204  and  _207
REMARK   91  A    between atoms: _207  and  _208
REMARK   92  A    between atoms: _214  and  _216
REMARK   93  A    between atoms: _216  and  _217
REMARK   94  A    between atoms: _216  and  _219
REMARK   95  A    between atoms: _219  and  _220
REMARK   96  A    between atoms: _220  and  _221
REMARK   97  A    between atoms: _224  and  _226
REMARK   98  A    between atoms: _226  and  _227
REMARK   99  A    between atoms: _226  and  _229
REMARK  100  A    between atoms: _229  and  _230
REMARK  101  A    between atoms: _233  and  _235
REMARK  102  A    between atoms: _235  and  _236
REMARK  103  A    between atoms: _235  and  _238
REMARK  104  A    between atoms: _241  and  _243
REMARK  105  A    between atoms: _243  and  _244
REMARK  106  A    between atoms: _243  and  _246
REMARK  107  A    between atoms: _246  and  _247
REMARK  108  A    between atoms: _247  and  _248
REMARK  109  A    between atoms: _248  and  _249
REMARK  110  A    between atoms: _249  and  _250
REMARK  111  A    between atoms: _254  and  _256
REMARK  112  A    between atoms: _256  and  _257
REMARK  113  A    between atoms: _256  and  _259
REMARK  114  A    between atoms: _259  and  _260
REMARK  115  A    between atoms: _260  and  _261
REMARK  116  A    between atoms: _261  and  _262
REMARK  117  A    between atoms: _262  and  _263
REMARK  118  A    between atoms: _267  and  _269
REMARK  119  A    between atoms: _269  and  _270
REMARK  120  A    between atoms: _269  and  _272
REMARK  121  A    between atoms: _272  and  _273
REMARK  122  A    between atoms: _276  and  _278
REMARK  123  A    between atoms: _278  and  _279
REMARK  124  A    between atoms: _278  and  _281
REMARK  125  A    between atoms: _281  and  _282
REMARK  126  A    between atoms: _285  and  _287
REMARK  127  A    between atoms: _287  and  _288
REMARK  128  A    between atoms: _287  and  _290
REMARK  129  A    between atoms: _290  and  _291
REMARK  130  A    between atoms: _291  and  _292
REMARK  131  A    between atoms: _294  and  _296
REMARK  132  A    between atoms: _296  and  _297
REMARK  133  A    between atoms: _296  and  _299
REMARK  134  A    between atoms: _299  and  _300
REMARK  135  A    between atoms: _300  and  _301
REMARK  136  A    between atoms: _304  and  _306
REMARK  137  A    between atoms: _306  and  _307
REMARK  138  A    between atoms: _306  and  _309
REMARK  139  A    between atoms: _309  and  _310
REMARK  140  A    between atoms: _316  and  _318
REMARK  141  A    between atoms: _318  and  _319
REMARK  142  A    between atoms: _318  and  _321
REMARK  143  A    between atoms: _321  and  _322
REMARK  144  A    between atoms: _326  and  _327
REMARK  145  A    between atoms: _332  and  _334
REMARK  146  A    between atoms: _334  and  _335
REMARK  147  A    between atoms: _334  and  _337
REMARK  148  A    between atoms: _337  and  _338
REMARK  149  A    between atoms: _343  and  _344
REMARK  150  A    between atoms: _346  and  _348
REMARK  151  A    between atoms: _348  and  _349
REMARK  152  A    between atoms: _351  and  _353
REMARK  153  A    between atoms: _353  and  _354
REMARK  154  A    between atoms: _353  and  _356
REMARK  155  A    between atoms: _356  and  _357
REMARK  156  A    between atoms: _359  and  _361
REMARK  157  A    between atoms: _361  and  _362
REMARK  158  A    between atoms: _361  and  _364
REMARK  159  A    between atoms: _364  and  _365
REMARK  160  A    between atoms: _368  and  _370
REMARK  161  A    between atoms: _370  and  _371
REMARK  162  A    between atoms: _370  and  _373
REMARK  163  A    between atoms: _373  and  _374
REMARK  164  A    between atoms: _374  and  _375
REMARK  165  A    between atoms: _375  and  _376
REMARK  166  A    between atoms: _385  and  _387
REMARK  167  A    between atoms: _387  and  _388
REMARK  168  A    between atoms: _387  and  _390
REMARK  169  A    between atoms: _390  and  _391
REMARK  170  A    between atoms: _391  and  _392
REMARK  171  A    between atoms: _395  and  _397
REMARK  172  A    between atoms: _397  and  _398
REMARK  173  A    between atoms: _397  and  _400
REMARK  174  A    between atoms: _400  and  _401
REMARK  175  A    between atoms: _404  and  _406
REMARK  176  A    between atoms: _406  and  _407
REMARK  177  A    between atoms: _410  and  _412
REMARK  178  A    between atoms: _412  and  _413
REMARK  179  A    between atoms: _412  and  _415
REMARK  180  A    between atoms: _415  and  _416
REMARK  181  A    between atoms: _419  and  _421
REMARK  182  A    between atoms: _421  and  _422
REMARK  183  A    between atoms: _421  and  _424
REMARK  184  A    between atoms: _424  and  _425
REMARK  185  A    between atoms: _425  and  _426
REMARK  186  A    between atoms: _426  and  _427
REMARK  187  A    between atoms: _436  and  _438
REMARK  188  A    between atoms: _438  and  _439
REMARK  189  A    between atoms: _438  and  _441
REMARK  190  A    between atoms: _441  and  _442
REMARK  191  A    between atoms: _447  and  _449
REMARK  192  A    between atoms: _449  and  _450
REMARK  193  A    between atoms: _449  and  _452
REMARK  194  A    between atoms: _452  and  _453
REMARK  195  A    between atoms: _456  and  _458
REMARK  196  A    between atoms: _458  and  _459
REMARK  197  A    between atoms: _458  and  _461
REMARK  198  A    between atoms: _461  and  _462
REMARK  199  A    between atoms: _465  and  _467
REMARK  200  A    between atoms: _467  and  _468
REMARK  201  A    between atoms: _467  and  _470
REMARK  202  A    between atoms: _473  and  _475
REMARK  203  A    between atoms: _475  and  _476
REMARK  204  A    between atoms: _475  and  _478
REMARK  205  A    between atoms: _478  and  _479
REMARK  206  A    between atoms: _479  and  _480
REMARK  207  A    between atoms: _483  and  _485
REMARK  208  A    between atoms: _485  and  _486
REMARK  209  A    between atoms: _485  and  _488
REMARK  210  A    between atoms: _488  and  _489
REMARK  211  A    between atoms: _489  and  _490
REMARK  212  A    between atoms: _490  and  _491
REMARK  213  A    between atoms: _491  and  _492
REMARK  214  A    between atoms: _496  and  _498
REMARK  215  A    between atoms: _498  and  _499
REMARK  216  A    between atoms: _498  and  _501
REMARK  217  A    between atoms: _501  and  _502
REMARK  218  A    between atoms: _505  and  _507
REMARK  219  A    between atoms: _507  and  _508
REMARK  220  A    between atoms: _510  and  _512
REMARK  221  A    between atoms: _512  and  _513
REMARK  222  A    between atoms: _512  and  _515
REMARK  223  A    between atoms: _515  and  _516
REMARK  224  A    between atoms: _519  and  _521
REMARK  225  A    between atoms: _521  and  _522
REMARK  226  A    between atoms: _521  and  _524
REMARK  227  A    between atoms: _524  and  _525
REMARK  228  A    between atoms: _531  and  _533
REMARK  229  A    between atoms: _533  and  _534
REMARK  230  A    between atoms: _536  and  _538
REMARK  231  A    between atoms: _538  and  _539
REMARK  232  A    between atoms: _538  and  _541
REMARK  233  A    between atoms: _541  and  _542
REMARK                            x       y       z     vdW  Elec       q    Type
REMARK                         _______ _______ _______ _____ _____    ______ ____
ROOT
ATOM      1  CA  GLU A   1       8.937  13.041  14.059  0.00  0.00    +0.134 C 
ENDROOT
BRANCH   1   2
ATOM      2  N   GLU A   1       8.010  11.900  14.148  0.00  0.00    -0.239 NA
ATOM      3  H   GLU A   1       7.144  11.908  13.573  0.00  0.00    +0.142 HD
ENDBRANCH   1   2
BRANCH   1   4
ATOM      4  C   GLU A   1       8.973  13.822  15.385  0.00  0.00    +0.224 C 
ATOM      5  O   GLU A   1      10.027  14.345  15.791  0.00  0.00    -0.287 OA
ENDBRANCH   1   4
BRANCH   1   6
ATOM      6  CB  GLU A   1       8.540  14.013  12.911  0.00  0.00    +0.037 C 
BRANCH   6   7
ATOM      7  CG  GLU A   1       9.200  15.410  13.030  0.00  0.00    +0.116 C 
BRANCH   7   8
ATOM      8  CD  GLU A   1       8.713  16.458  12.010  0.00  0.00    +0.365 C 
ATOM      9  OE2 GLU A   1       9.361  17.519  11.908  0.00  0.00    -0.246 OA
ATOM     10  OE1 GLU A   1       7.709  16.253  11.327  0.00  0.00    -0.246 OA
ENDBRANCH   7   8
ENDBRANCH   6   7
ENDBRANCH   1   6
TORSDOF 5
REMARK  Name = ../refined-set-2016/4e6q/4e6q_pocket.pdb
REMARK  233 active torsions:
REMARK  status: ('A' for Active; 'I' for Inactive)
REMARK    1  A    between atoms: _1  and  _3
REMARK    2  A    between atoms: _3  and  _4
REMARK    3  A    between atoms: _3  and  _6
REMARK    4  A    between atoms: _6  and  _7
REMARK    5  A    between atoms: _7  and  _8
REMARK    6  A    between atoms: _8  and  _9
REMARK    7  A    between atoms: _18  and  _20
REMARK    8  A    between atoms: _20  and  _21
REMARK    9  A    between atoms: _20  and  _23
REMARK   10  A    between atoms: _23  and  _24
REMARK   11  A    between atoms: _24  and  _25
REMARK   12  A    between atoms: _30  and  _32
REMARK   13  A    between atoms: _32  and  _33
REMARK   14  A    between atoms: _32  and  _35
REMARK   15  A    between atoms: _35  and  _36
REMARK   16  A    between atoms: _39  and  _41
REMARK   17  A    between atoms: _41  and  _42
REMARK   18  A    between atoms: _44  and  _46
REMARK   19  A    between atoms: _46  and  _47
REMARK   20  A    between atoms: _46  and  _49
REMARK   21  A    between atoms: _49  and  _50
REMARK   22  A    between atoms: _50  and  _51
REMARK   23  A    between atoms: _51  and  _52
REMARK   24  A    between atoms: _52  and  _53
REMARK   25  A    between atoms: _57  and  _59
REMARK   26  A    between atoms: _59  and  _60
REMARK   27  A    between atoms: _62  and  _64
REMARK   28  A    between atoms: _64  and  _65
REMARK   29  A    between atoms: _64  and  _67
REMARK   30  A    between atoms: _67  and  _68
REMARK   31  A    between atoms: _73  and  _75
REMARK   32  A    between atoms: _75  and  _76
REMARK   33  A    between atoms: _75  and  _78
REMARK   34  A    between atoms: _78  and  _79
REMARK   35  A    between atoms: _85  and  _87
REMARK   36  A    between atoms: _87  and  _88
REMARK   37  A    between atoms: _90  and  _92
REMARK   38  A    between atoms: _92  and  _93
REMARK   39  A    between atoms: _92  and  _95
REMARK   40  A    between atoms: _95  and  _96
REMARK   41  A    between atoms: _98  and  _100
REMARK   42  A    between atoms: _100  and  _101
REMARK   43  A    between atoms: _100  and  _103
REMARK   44  A    between atoms: _106  and  _108
REMARK   45  A    between atoms: _108  and  _109
REMARK   46  A    between atoms: _108  and  _111
REMARK   47  A    between atoms: _111  and  _112
REMARK   48  A    between atoms: _112  and  _113
REMARK   49  A    between atoms: _116  and  _118
REMARK   50  A    between atoms: _118  and  _119
REMARK   51  A    between atoms: _118  and  _121
REMARK   52  A    between atoms: _121  and  _122
REMARK   53  A    between atoms: _122  and  _123
REMARK   54  A    between atoms: _125  and  _127
REMARK   55  A    between atoms: _127  and  _128
REMARK   56  A    between atoms: _127  and  _130
REMARK   57  A    between atoms: _133  and  _135
REMARK   58  A    between atoms: _135  and  _136
REMARK   59  A    between atoms: _135  and  _138
REMARK   60  A    between atoms: _141  and  _143
REMARK   61  A    between atoms: _143  and  _144
REMARK   62  A    between atoms: _147  and  _149
REMARK   63  A    between atoms: _149  and  _150
REMARK   64  A    between atoms: _149  and  _152
REMARK   65  A    between atoms: _155  and  _157
REMARK   66  A    between atoms: _157  and  _158
REMARK   67  A    between atoms: _157  and  _160
REMARK   68  A    between atoms: _160  and  _161
REMARK   69  A    between atoms: _161  and  _162
REMARK   70  A    between atoms: _162  and  _163
REMARK   71  A    between atoms: _163  and  _164
REMARK   72  A    between atoms: _168  and  _170
REMARK   73  A    between atoms: _170  and  _171
REMARK   74  A    between atoms: _170  and  _173
REMARK   75  A    between atoms: _173  and  _174
REMARK   76  A    between atoms: _174  and  _175
REMARK   77  A    between atoms: _175  and  _176
REMARK   78  A    between atoms: _176  and  _177
REMARK   79  A    between atoms: _181  and  _183
REMARK   80  A    between atoms: _183  and  _184
REMARK   81  A    between atoms: _183  and  _186
REMARK   82  A    between atoms: _186  and  _187
REMARK   83  A    between atoms: _190  and  _192
REMARK   84  A    between atoms: _192  and  _193
REMARK   85  A    between atoms: _192  and  _195
REMARK   86  A    between atoms: _195  and  _196
REMARK   87  A    between atoms: _196  and  _197
REMARK   88  A    between atoms: _202  and  _204
REMARK   89  A    between atoms: _204  and  _205
REMARK   90  A    between atoms: _204  and  _207
REMARK   91  A    between atoms: _207  and  _208
REMARK   92  A    between atoms: _214  and  _216
REMARK   93  A    between atoms: _216  and  _217
REMARK   94  A    between atoms: _216  and  _219
REMARK   95  A    between atoms: _219  and  _220
REMARK   96  A    between atoms: _220  and  _221
REMARK   97  A    between atoms: _224  and  _226
REMARK   98  A    between atoms: _226  and  _227
REMARK   99  A    between atoms: _226  and  _229
REMARK  100  A    between atoms: _229  and  _230
REMARK  101  A    between atoms: _233  and  _235
REMARK  102  A    between atoms: _235  and  _236
REMARK  103  A    between atoms: _235  and  _238
REMARK  104  A    between atoms: _241  and  _243
REMARK  105  A    between atoms: _243  and  _244
REMARK  106  A    between atoms: _243  and  _246
REMARK  107  A    between atoms: _246  and  _247
REMARK  108  A    between atoms: _247  and  _248
REMARK  109  A    between atoms: _248  and  _249
REMARK  110  A    between atoms: _249  and  _250
REMARK  111  A    between atoms: _254  and  _256
REMARK  112  A    between atoms: _256  and  _257
REMARK  113  A    between atoms: _256  and  _259
REMARK  114  A    between atoms: _259  and  _260
REMARK  115  A    between atoms: _260  and  _261
REMARK  116  A    between atoms: _261  and  _262
REMARK  117  A    between atoms: _262  and  _263
REMARK  118  A    between atoms: _267  and  _269
REMARK  119  A    between atoms: _269  and  _270
REMARK  120  A    between atoms: _269  and  _272
REMARK  121  A    between atoms: _272  and  _273
REMARK  122  A    between atoms: _276  and  _278
REMARK  123  A    between atoms: _278  and  _279
REMARK  124  A    between atoms: _278  and  _281
REMARK  125  A    between atoms: _281  and  _282
REMARK  126  A    between atoms: _285  and  _287
REMARK  127  A    between atoms: _287  and  _288
REMARK  128  A    between atoms: _287  and  _290
REMARK  129  A    between atoms: _290  and  _291
REMARK  130  A    between atoms: _291  and  _292
REMARK  131  A    between atoms: _294  and  _296
REMARK  132  A    between atoms: _296  and  _297
REMARK  133  A    between atoms: _296  and  _299
REMARK  134  A    between atoms: _299  and  _300
REMARK  135  A    between atoms: _300  and  _301
REMARK  136  A    between atoms: _304  and  _306
REMARK  137  A    between atoms: _306  and  _307
REMARK  138  A    between atoms: _306  and  _309
REMARK  139  A    between atoms: _309  and  _310
REMARK  140  A    between atoms: _316  and  _318
REMARK  141  A    between atoms: _318  and  _319
REMARK  142  A    between atoms: _318  and  _321
REMARK  143  A    between atoms: _321  and  _322
REMARK  144  A    between atoms: _326  and  _327
REMARK  145  A    between atoms: _332  and  _334
REMARK  146  A    between atoms: _334  and  _335
REMARK  147  A    between atoms: _334  and  _337
REMARK  148  A    between atoms: _337  and  _338
REMARK  149  A    between atoms: _343  and  _344
REMARK  150  A    between atoms: _346  and  _348
REMARK  151  A    between atoms: _348  and  _349
REMARK  152  A    between atoms: _351  and  _353
REMARK  153  A    between atoms: _353  and  _354
REMARK  154  A    between atoms: _353  and  _356
REMARK  155  A    between atoms: _356  and  _357
REMARK  156  A    between atoms: _359  and  _361
REMARK  157  A    between atoms: _361  and  _362
REMARK  158  A    between atoms: _361  and  _364
REMARK  159  A    between atoms: _364  and  _365
REMARK  160  A    between atoms: _368  and  _370
REMARK  161  A    between atoms: _370  and  _371
REMARK  162  A    between atoms: _370  and  _373
REMARK  163  A    between atoms: _373  and  _374
REMARK  164  A    between atoms: _374  and  _375
REMARK  165  A    between atoms: _375  and  _376
REMARK  166  A    between atoms: _385  and  _387
REMARK  167  A    between atoms: _387  and  _388
REMARK  168  A    between atoms: _387  and  _390
REMARK  169  A    between atoms: _390  and  _391
REMARK  170  A    between atoms: _391  and  _392
REMARK  171  A    between atoms: _395  and  _397
REMARK  172  A    between atoms: _397  and  _398
REMARK  173  A    between atoms: _397  and  _400
REMARK  174  A    between atoms: _400  and  _401
REMARK  175  A    between atoms: _404  and  _406
REMARK  176  A    between atoms: _406  and  _407
REMARK  177  A    between atoms: _410  and  _412
REMARK  178  A    between atoms: _412  and  _413
REMARK  179  A    between atoms: _412  and  _415
REMARK  180  A    between atoms: _415  and  _416
REMARK  181  A    between atoms: _419  and  _421
REMARK  182  A    between atoms: _421  and  _422
REMARK  183  A    between atoms: _421  and  _424
REMARK  184  A    between atoms: _424  and  _425
REMARK  185  A    between atoms: _425  and  _426
REMARK  186  A    between atoms: _426  and  _427
REMARK  187  A    between atoms: _436  and  _438
REMARK  188  A    between atoms: _438  and  _439
REMARK  189  A    between atoms: _438  and  _441
REMARK  190  A    between atoms: _441  and  _442
REMARK  191  A    between atoms: _447  and  _449
REMARK  192  A    between atoms: _449  and  _450
REMARK  193  A    between atoms: _449  and  _452
REMARK  194  A    between atoms: _452  and  _453
REMARK  195  A    between atoms: _456  and  _458
REMARK  196  A    between atoms: _458  and  _459
REMARK  197  A    between atoms: _458  and  _461
REMARK  198  A    between atoms: _461  and  _462
REMARK  199  A    between atoms: _465  and  _467
REMARK  200  A    between atoms: _467  and  _468
REMARK  201  A    between atoms: _467  and  _470
REMARK  202  A    between atoms: _473  and  _475
REMARK  203  A    between atoms: _475  and  _476
REMARK  204  A    between atoms: _475  and  _478
REMARK  205  A    between atoms: _478  and  _479
REMARK  206  A    between atoms: _479  and  _480
REMARK  207  A    between atoms: _483  and  _485
REMARK  208  A    between atoms: _485  and  _486
REMARK  209  A    between atoms: _485  and  _488
REMARK  210  A    between atoms: _488  and  _489
REMARK  211  A    between atoms: _489  and  _490
REMARK  212  A    between atoms: _490  and  _491
REMARK  213  A    between atoms: _491  and  _492
REMARK  214  A    between atoms: _496  and  _498
REMARK  215  A    between atoms: _498  and  _499
REMARK  216  A    between atoms: _498  and  _501
REMARK  217  A    between atoms: _501  and  _502
REMARK  218  A    between atoms: _505  and  _507
REMARK  219  A    between atoms: _507  and  _508
REMARK  220  A    between atoms: _510  and  _512
REMARK  221  A    between atoms: _512  and  _513
REMARK  222  A    between atoms: _512  and  _515
REMARK  223  A    between atoms: _515  and  _516
REMARK  224  A    between atoms: _519  and  _521
REMARK  225  A    between atoms: _521  and  _522
REMARK  226  A    between atoms: _521  and  _524
REMARK  227  A    between atoms: _524  and  _525
REMARK  228  A    between atoms: _531  and  _533
REMARK  229  A    between atoms: _533  and  _534
REMARK  230  A    between atoms: _536  and  _538
REMARK  231  A    between atoms: _538  and  _539
REMARK  232  A    between atoms: _538  and  _541
REMARK  233  A    between atoms: _541  and  _542
REMARK                            x       y       z     vdW  Elec       q    Type
REMARK                         _______ _______ _______ _____ _____    ______ ____
ROOT
ATOM      1  CA  LEU A   1      12.990  15.613  18.057  0.00  0.00    +0.133 C 
ENDROOT
BRANCH   1   2
ATOM      2  N   LEU A   1      12.454  14.310  17.632  0.00  0.00    -0.239 NA
ATOM      3  H   LEU A   1      11.506  14.246  17.209  0.00  0.00    +0.142 HD
ENDBRANCH   1   2
BRANCH   1   4
ATOM      4  C   LEU A   1      13.112  15.715  19.571  0.00  0.00    +0.224 C 
ATOM      5  O   LEU A   1      14.031  16.404  20.146  0.00  0.00    -0.287 OA
ENDBRANCH   1   4
BRANCH   1   6
ATOM      6  CB  LEU A   1      12.093  16.724  17.534  0.00  0.00    +0.025 C 
BRANCH   6   7
ATOM      7  CG  LEU A   1      12.802  18.090  17.721  0.00  0.00    +0.002 C 
ATOM      8  CD2 LEU A   1      14.260  18.106  17.141  0.00  0.00    +0.000 C 
ATOM      9  CD1 LEU A   1      11.939  19.094  17.003  0.00  0.00    +0.000 C 
ENDBRANCH   6   7
ENDBRANCH   1   6
TORSDOF 4
REMARK  Name = ../refined-set-2016/4e6q/4e6q_pocket.pdb
REMARK  233 active torsions:
REMARK  status: ('A' for Active; 'I' for Inactive)
REMARK    1  A    between atoms: _1  and  _3
REMARK    2  A    between atoms: _3  and  _4
REMARK    3  A    between atoms: _3  and  _6
REMARK    4  A    between atoms: _6  and  _7
REMARK    5  A    between atoms: _7  and  _8
REMARK    6  A    between atoms: _8  and  _9
REMARK    7  A    between atoms: _18  and  _20
REMARK    8  A    between atoms: _20  and  _21
REMARK    9  A    between atoms: _20  and  _23
REMARK   10  A    between atoms: _23  and  _24
REMARK   11  A    between atoms: _24  and  _25
REMARK   12  A    between atoms: _30  and  _32
REMARK   13  A    between atoms: _32  and  _33
REMARK   14  A    between atoms: _32  and  _35
REMARK   15  A    between atoms: _35  and  _36
REMARK   16  A    between atoms: _39  and  _41
REMARK   17  A    between atoms: _41  and  _42
REMARK   18  A    between atoms: _44  and  _46
REMARK   19  A    between atoms: _46  and  _47
REMARK   20  A    between atoms: _46  and  _49
REMARK   21  A    between atoms: _49  and  _50
REMARK   22  A    between atoms: _50  and  _51
REMARK   23  A    between atoms: _51  and  _52
REMARK   24  A    between atoms: _52  and  _53
REMARK   25  A    between atoms: _57  and  _59
REMARK   26  A    between atoms: _59  and  _60
REMARK   27  A    between atoms: _62  and  _64
REMARK   28  A    between atoms: _64  and  _65
REMARK   29  A    between atoms: _64  and  _67
REMARK   30  A    between atoms: _67  and  _68
REMARK   31  A    between atoms: _73  and  _75
REMARK   32  A    between atoms: _75  and  _76
REMARK   33  A    between atoms: _75  and  _78
REMARK   34  A    between atoms: _78  and  _79
REMARK   35  A    between atoms: _85  and  _87
REMARK   36  A    between atoms: _87  and  _88
REMARK   37  A    between atoms: _90  and  _92
REMARK   38  A    between atoms: _92  and  _93
REMARK   39  A    between atoms: _92  and  _95
REMARK   40  A    between atoms: _95  and  _96
REMARK   41  A    between atoms: _98  and  _100
REMARK   42  A    between atoms: _100  and  _101
REMARK   43  A    between atoms: _100  and  _103
REMARK   44  A    between atoms: _106  and  _108
REMARK   45  A    between atoms: _108  and  _109
REMARK   46  A    between atoms: _108  and  _111
REMARK   47  A    between atoms: _111  and  _112
REMARK   48  A    between atoms: _112  and  _113
REMARK   49  A    between atoms: _116  and  _118
REMARK   50  A    between atoms: _118  and  _119
REMARK   51  A    between atoms: _118  and  _121
REMARK   52  A    between atoms: _121  and  _122
REMARK   53  A    between atoms: _122  and  _123
REMARK   54  A    between atoms: _125  and  _127
REMARK   55  A    between atoms: _127  and  _128
REMARK   56  A    between atoms: _127  and  _130
REMARK   57  A    between atoms: _133  and  _135
REMARK   58  A    between atoms: _135  and  _136
REMARK   59  A    between atoms: _135  and  _138
REMARK   60  A    between atoms: _141  and  _143
REMARK   61  A    between atoms: _143  and  _144
REMARK   62  A    between atoms: _147  and  _149
REMARK   63  A    between atoms: _149  and  _150
REMARK   64  A    between atoms: _149  and  _152
REMARK   65  A    between atoms: _155  and  _157
REMARK   66  A    between atoms: _157  and  _158
REMARK   67  A    between atoms: _157  and  _160
REMARK   68  A    between atoms: _160  and  _161
REMARK   69  A    between atoms: _161  and  _162
REMARK   70  A    between atoms: _162  and  _163
REMARK   71  A    between atoms: _163  and  _164
REMARK   72  A    between atoms: _168  and  _170
REMARK   73  A    between atoms: _170  and  _171
REMARK   74  A    between atoms: _170  and  _173
REMARK   75  A    between atoms: _173  and  _174
REMARK   76  A    between atoms: _174  and  _175
REMARK   77  A    between atoms: _175  and  _176
REMARK   78  A    between atoms: _176  and  _177
REMARK   79  A    between atoms: _181  and  _183
REMARK   80  A    between atoms: _183  and  _184
REMARK   81  A    between atoms: _183  and  _186
REMARK   82  A    between atoms: _186  and  _187
REMARK   83  A    between atoms: _190  and  _192
REMARK   84  A    between atoms: _192  and  _193
REMARK   85  A    between atoms: _192  and  _195
REMARK   86  A    between atoms: _195  and  _196
REMARK   87  A    between atoms: _196  and  _197
REMARK   88  A    between atoms: _202  and  _204
REMARK   89  A    between atoms: _204  and  _205
REMARK   90  A    between atoms: _204  and  _207
REMARK   91  A    between atoms: _207  and  _208
REMARK   92  A    between atoms: _214  and  _216
REMARK   93  A    between atoms: _216  and  _217
REMARK   94  A    between atoms: _216  and  _219
REMARK   95  A    between atoms: _219  and  _220
REMARK   96  A    between atoms: _220  and  _221
REMARK   97  A    between atoms: _224  and  _226
REMARK   98  A    between atoms: _226  and  _227
REMARK   99  A    between atoms: _226  and  _229
REMARK  100  A    between atoms: _229  and  _230
REMARK  101  A    between atoms: _233  and  _235
REMARK  102  A    between atoms: _235  and  _236
REMARK  103  A    between atoms: _235  and  _238
REMARK  104  A    between atoms: _241  and  _243
REMARK  105  A    between atoms: _243  and  _244
REMARK  106  A    between atoms: _243  and  _246
REMARK  107  A    between atoms: _246  and  _247
REMARK  108  A    between atoms: _247  and  _248
REMARK  109  A    between atoms: _248  and  _249
REMARK  110  A    between atoms: _249  and  _250
REMARK  111  A    between atoms: _254  and  _256
REMARK  112  A    between atoms: _256  and  _257
REMARK  113  A    between atoms: _256  and  _259
REMARK  114  A    between atoms: _259  and  _260
REMARK  115  A    between atoms: _260  and  _261
REMARK  116  A    between atoms: _261  and  _262
REMARK  117  A    between atoms: _262  and  _263
REMARK  118  A    between atoms: _267  and  _269
REMARK  119  A    between atoms: _269  and  _270
REMARK  120  A    between atoms: _269  and  _272
REMARK  121  A    between atoms: _272  and  _273
REMARK  122  A    between atoms: _276  and  _278
REMARK  123  A    between atoms: _278  and  _279
REMARK  124  A    between atoms: _278  and  _281
REMARK  125  A    between atoms: _281  and  _282
REMARK  126  A    between atoms: _285  and  _287
REMARK  127  A    between atoms: _287  and  _288
REMARK  128  A    between atoms: _287  and  _290
REMARK  129  A    between atoms: _290  and  _291
REMARK  130  A    between atoms: _291  and  _292
REMARK  131  A    between atoms: _294  and  _296
REMARK  132  A    between atoms: _296  and  _297
REMARK  133  A    between atoms: _296  and  _299
REMARK  134  A    between atoms: _299  and  _300
REMARK  135  A    between atoms: _300  and  _301
REMARK  136  A    between atoms: _304  and  _306
REMARK  137  A    between atoms: _306  and  _307
REMARK  138  A    between atoms: _306  and  _309
REMARK  139  A    between atoms: _309  and  _310
REMARK  140  A    between atoms: _316  and  _318
REMARK  141  A    between atoms: _318  and  _319
REMARK  142  A    between atoms: _318  and  _321
REMARK  143  A    between atoms: _321  and  _322
REMARK  144  A    between atoms: _326  and  _327
REMARK  145  A    between atoms: _332  and  _334
REMARK  146  A    between atoms: _334  and  _335
REMARK  147  A    between atoms: _334  and  _337
REMARK  148  A    between atoms: _337  and  _338
REMARK  149  A    between atoms: _343  and  _344
REMARK  150  A    between atoms: _346  and  _348
REMARK  151  A    between atoms: _348  and  _349
REMARK  152  A    between atoms: _351  and  _353
REMARK  153  A    between atoms: _353  and  _354
REMARK  154  A    between atoms: _353  and  _356
REMARK  155  A    between atoms: _356  and  _357
REMARK  156  A    between atoms: _359  and  _361
REMARK  157  A    between atoms: _361  and  _362
REMARK  158  A    between atoms: _361  and  _364
REMARK  159  A    between atoms: _364  and  _365
REMARK  160  A    between atoms: _368  and  _370
REMARK  161  A    between atoms: _370  and  _371
REMARK  162  A    between atoms: _370  and  _373
REMARK  163  A    between atoms: _373  and  _374
REMARK  164  A    between atoms: _374  and  _375
REMARK  165  A    between atoms: _375  and  _376
REMARK  166  A    between atoms: _385  and  _387
REMARK  167  A    between atoms: _387  and  _388
REMARK  168  A    between atoms: _387  and  _390
REMARK  169  A    between atoms: _390  and  _391
REMARK  170  A    between atoms: _391  and  _392
REMARK  171  A    between atoms: _395  and  _397
REMARK  172  A    between atoms: _397  and  _398
REMARK  173  A    between atoms: _397  and  _400
REMARK  174  A    between atoms: _400  and  _401
REMARK  175  A    between atoms: _404  and  _406
REMARK  176  A    between atoms: _406  and  _407
REMARK  177  A    between atoms: _410  and  _412
REMARK  178  A    between atoms: _412  and  _413
REMARK  179  A    between atoms: _412  and  _415
REMARK  180  A    between atoms: _415  and  _416
REMARK  181  A    between atoms: _419  and  _421
REMARK  182  A    between atoms: _421  and  _422
REMARK  183  A    between atoms: _421  and  _424
REMARK  184  A    between atoms: _424  and  _425
REMARK  185  A    between atoms: _425  and  _426
REMARK  186  A    between atoms: _426  and  _427
REMARK  187  A    between atoms: _436  and  _438
REMARK  188  A    between atoms: _438  and  _439
REMARK  189  A    between atoms: _438  and  _441
REMARK  190  A    between atoms: _441  and  _442
REMARK  191  A    between atoms: _447  and  _449
REMARK  192  A    between atoms: _449  and  _450
REMARK  193  A    between atoms: _449  and  _452
REMARK  194  A    between atoms: _452  and  _453
REMARK  195  A    between atoms: _456  and  _458
REMARK  196  A    between atoms: _458  and  _459
REMARK  197  A    between atoms: _458  and  _461
REMARK  198  A    between atoms: _461  and  _462
REMARK  199  A    between atoms: _465  and  _467
REMARK  200  A    between atoms: _467  and  _468
REMARK  201  A    between atoms: _467  and  _470
REMARK  202  A    between atoms: _473  and  _475
REMARK  203  A    between atoms: _475  and  _476
REMARK  204  A    between atoms: _475  and  _478
REMARK  205  A    between atoms: _478  and  _479
REMARK  206  A    between atoms: _479  and  _480
REMARK  207  A    between atoms: _483  and  _485
REMARK  208  A    between atoms: _485  and  _486
REMARK  209  A    between atoms: _485  and  _488
REMARK  210  A    between atoms: _488  and  _489
REMARK  211  A    between atoms: _489  and  _490
REMARK  212  A    between atoms: _490  and  _491
REMARK  213  A    between atoms: _491  and  _492
REMARK  214  A    between atoms: _496  and  _498
REMARK  215  A    between atoms: _498  and  _499
REMARK  216  A    between atoms: _498  and  _501
REMARK  217  A    between atoms: _501  and  _502
REMARK  218  A    between atoms: _505  and  _507
REMARK  219  A    between atoms: _507  and  _508
REMARK  220  A    between atoms: _510  and  _512
REMARK  221  A    between atoms: _512  and  _513
REMARK  222  A    between atoms: _512  and  _515
REMARK  223  A    between atoms: _515  and  _516
REMARK  224  A    between atoms: _519  and  _521
REMARK  225  A    between atoms: _521  and  _522
REMARK  226  A    between atoms: _521  and  _524
REMARK  227  A    between atoms: _524  and  _525
REMARK  228  A    between atoms: _531  and  _533
REMARK  229  A    between atoms: _533  and  _534
REMARK  230  A    between atoms: _536  and  _538
REMARK  231  A    between atoms: _538  and  _539
REMARK  232  A    between atoms: _538  and  _541
REMARK  233  A    between atoms: _541  and  _542
REMARK                            x       y       z     vdW  Elec       q    Type
REMARK                         _______ _______ _______ _____ _____    ______ ____
ROOT
ATOM      1  CA  LYS A   2      15.406  22.578  20.682  0.00  0.00    +0.137 C 
ENDROOT
BRANCH   1   3
ATOM      2  C   VAL A   1      16.225  22.217  18.479  0.00  0.00    +0.238 C 
ATOM      3  N   LYS A   2      15.977  23.069  19.458  0.00  0.00    -0.298 N 
ATOM      4  H   LYS A   2      16.192  24.080  19.344  0.00  0.00    +0.150 HD
ATOM      5  O   VAL A   1      15.953  21.027  18.570  0.00  0.00    -0.274 OA
BRANCH   2   6
ATOM      6  CA  VAL A   1      16.935  22.774  17.257  0.00  0.00    +0.145 C 
BRANCH   6   7
ATOM      7  CB  VAL A   1      15.928  23.116  16.154  0.00  0.00    +0.025 C 
ATOM      8  CG2 VAL A   1      14.963  24.253  16.600  0.00  0.00    +0.002 C 
ATOM      9  CG1 VAL A   1      15.147  21.876  15.654  0.00  0.00    +0.002 C 
ENDBRANCH   6   7
BRANCH   6  10
ATOM     10  N   VAL A   1      17.957  21.855  16.793  0.00  0.00    -0.238 NA
ATOM     11  H   VAL A   1      17.953  21.579  15.790  0.00  0.00    +0.142 HD
ENDBRANCH   6  10
ENDBRANCH   2   6
ENDBRANCH   1   3
BRANCH   1  12
ATOM     12  C   LYS A   2      13.904  22.278  20.540  0.00  0.00    +0.227 C 
ATOM     13  O   LYS A   2      13.096  23.164  20.185  0.00  0.00    -0.286 OA
ENDBRANCH   1  12
BRANCH   1  14
ATOM     14  CB  LYS A   2      15.628  23.572  21.828  0.00  0.00    +0.028 C 
BRANCH  14  15
ATOM     15  CG  LYS A   2      16.762  23.241  22.760  0.00  0.00    -0.000 C 
BRANCH  15  16
ATOM     16  CD  LYS A   2      16.548  23.912  24.093  0.00  0.00    -0.024 C 
BRANCH  16  17
ATOM     17  CE  LYS A   2      17.894  24.317  24.700  0.00  0.00    -0.086 C 
BRANCH  17  18
ATOM     18  NZ  LYS A   2      18.681  25.254  23.818  0.00  0.00    +0.380 N 
ATOM     19  HZ1 LYS A   2      19.581  25.492  24.282  0.00  0.00    -0.089 HD
ATOM     20  HZ2 LYS A   2      18.131  26.123  23.660  0.00  0.00    -0.089 HD
ATOM     21  HZ3 LYS A   2      18.872  24.792  22.906  0.00  0.00    -0.089 HD
ENDBRANCH  17  18
ENDBRANCH  16  17
ENDBRANCH  15  16
ENDBRANCH  14  15
ENDBRANCH   1  14
TORSDOF 10
REMARK  Name = ../refined-set-2016/4e6q/4e6q_pocket.pdb
REMARK  233 active torsions:
REMARK  status: ('A' for Active; 'I' for Inactive)
REMARK    1  A    between atoms: _1  and  _3
REMARK    2  A    between atoms: _3  and  _4
REMARK    3  A    between atoms: _3  and  _6
REMARK    4  A    between atoms: _6  and  _7
REMARK    5  A    between atoms: _7  and  _8
REMARK    6  A    between atoms: _8  and  _9
REMARK    7  A    between atoms: _18  and  _20
REMARK    8  A    between atoms: _20  and  _21
REMARK    9  A    between atoms: _20  and  _23
REMARK   10  A    between atoms: _23  and  _24
REMARK   11  A    between atoms: _24  and  _25
REMARK   12  A    between atoms: _30  and  _32
REMARK   13  A    between atoms: _32  and  _33
REMARK   14  A    between atoms: _32  and  _35
REMARK   15  A    between atoms: _35  and  _36
REMARK   16  A    between atoms: _39  and  _41
REMARK   17  A    between atoms: _41  and  _42
REMARK   18  A    between atoms: _44  and  _46
REMARK   19  A    between atoms: _46  and  _47
REMARK   20  A    between atoms: _46  and  _49
REMARK   21  A    between atoms: _49  and  _50
REMARK   22  A    between atoms: _50  and  _51
REMARK   23  A    between atoms: _51  and  _52
REMARK   24  A    between atoms: _52  and  _53
REMARK   25  A    between atoms: _57  and  _59
REMARK   26  A    between atoms: _59  and  _60
REMARK   27  A    between atoms: _62  and  _64
REMARK   28  A    between atoms: _64  and  _65
REMARK   29  A    between atoms: _64  and  _67
REMARK   30  A    between atoms: _67  and  _68
REMARK   31  A    between atoms: _73  and  _75
REMARK   32  A    between atoms: _75  and  _76
REMARK   33  A    between atoms: _75  and  _78
REMARK   34  A    between atoms: _78  and  _79
REMARK   35  A    between atoms: _85  and  _87
REMARK   36  A    between atoms: _87  and  _88
REMARK   37  A    between atoms: _90  and  _92
REMARK   38  A    between atoms: _92  and  _93
REMARK   39  A    between atoms: _92  and  _95
REMARK   40  A    between atoms: _95  and  _96
REMARK   41  A    between atoms: _98  and  _100
REMARK   42  A    between atoms: _100  and  _101
REMARK   43  A    between atoms: _100  and  _103
REMARK   44  A    between atoms: _106  and  _108
REMARK   45  A    between atoms: _108  and  _109
REMARK   46  A    between atoms: _108  and  _111
REMARK   47  A    between atoms: _111  and  _112
REMARK   48  A    between atoms: _112  and  _113
REMARK   49  A    between atoms: _116  and  _118
REMARK   50  A    between atoms: _118  and  _119
REMARK   51  A    between atoms: _118  and  _121
REMARK   52  A    between atoms: _121  and  _122
REMARK   53  A    between atoms: _122  and  _123
REMARK   54  A    between atoms: _125  and  _127
REMARK   55  A    between atoms: _127  and  _128
REMARK   56  A    between atoms: _127  and  _130
REMARK   57  A    between atoms: _133  and  _135
REMARK   58  A    between atoms: _135  and  _136
REMARK   59  A    between atoms: _135  and  _138
REMARK   60  A    between atoms: _141  and  _143
REMARK   61  A    between atoms: _143  and  _144
REMARK   62  A    between atoms: _147  and  _149
REMARK   63  A    between atoms: _149  and  _150
REMARK   64  A    between atoms: _149  and  _152
REMARK   65  A    between atoms: _155  and  _157
REMARK   66  A    between atoms: _157  and  _158
REMARK   67  A    between atoms: _157  and  _160
REMARK   68  A    between atoms: _160  and  _161
REMARK   69  A    between atoms: _161  and  _162
REMARK   70  A    between atoms: _162  and  _163
REMARK   71  A    between atoms: _163  and  _164
REMARK   72  A    between atoms: _168  and  _170
REMARK   73  A    between atoms: _170  and  _171
REMARK   74  A    between atoms: _170  and  _173
REMARK   75  A    between atoms: _173  and  _174
REMARK   76  A    between atoms: _174  and  _175
REMARK   77  A    between atoms: _175  and  _176
REMARK   78  A    between atoms: _176  and  _177
REMARK   79  A    between atoms: _181  and  _183
REMARK   80  A    between atoms: _183  and  _184
REMARK   81  A    between atoms: _183  and  _186
REMARK   82  A    between atoms: _186  and  _187
REMARK   83  A    between atoms: _190  and  _192
REMARK   84  A    between atoms: _192  and  _193
REMARK   85  A    between atoms: _192  and  _195
REMARK   86  A    between atoms: _195  and  _196
REMARK   87  A    between atoms: _196  and  _197
REMARK   88  A    between atoms: _202  and  _204
REMARK   89  A    between atoms: _204  and  _205
REMARK   90  A    between atoms: _204  and  _207
REMARK   91  A    between atoms: _207  and  _208
REMARK   92  A    between atoms: _214  and  _216
REMARK   93  A    between atoms: _216  and  _217
REMARK   94  A    between atoms: _216  and  _219
REMARK   95  A    between atoms: _219  and  _220
REMARK   96  A    between atoms: _220  and  _221
REMARK   97  A    between atoms: _224  and  _226
REMARK   98  A    between atoms: _226  and  _227
REMARK   99  A    between atoms: _226  and  _229
REMARK  100  A    between atoms: _229  and  _230
REMARK  101  A    between atoms: _233  and  _235
REMARK  102  A    between atoms: _235  and  _236
REMARK  103  A    between atoms: _235  and  _238
REMARK  104  A    between atoms: _241  and  _243
REMARK  105  A    between atoms: _243  and  _244
REMARK  106  A    between atoms: _243  and  _246
REMARK  107  A    between atoms: _246  and  _247
REMARK  108  A    between atoms: _247  and  _248
REMARK  109  A    between atoms: _248  and  _249
REMARK  110  A    between atoms: _249  and  _250
REMARK  111  A    between atoms: _254  and  _256
REMARK  112  A    between atoms: _256  and  _257
REMARK  113  A    between atoms: _256  and  _259
REMARK  114  A    between atoms: _259  and  _260
REMARK  115  A    between atoms: _260  and  _261
REMARK  116  A    between atoms: _261  and  _262
REMARK  117  A    between atoms: _262  and  _263
REMARK  118  A    between atoms: _267  and  _269
REMARK  119  A    between atoms: _269  and  _270
REMARK  120  A    between atoms: _269  and  _272
REMARK  121  A    between atoms: _272  and  _273
REMARK  122  A    between atoms: _276  and  _278
REMARK  123  A    between atoms: _278  and  _279
REMARK  124  A    between atoms: _278  and  _281
REMARK  125  A    between atoms: _281  and  _282
REMARK  126  A    between atoms: _285  and  _287
REMARK  127  A    between atoms: _287  and  _288
REMARK  128  A    between atoms: _287  and  _290
REMARK  129  A    between atoms: _290  and  _291
REMARK  130  A    between atoms: _291  and  _292
REMARK  131  A    between atoms: _294  and  _296
REMARK  132  A    between atoms: _296  and  _297
REMARK  133  A    between atoms: _296  and  _299
REMARK  134  A    between atoms: _299  and  _300
REMARK  135  A    between atoms: _300  and  _301
REMARK  136  A    between atoms: _304  and  _306
REMARK  137  A    between atoms: _306  and  _307
REMARK  138  A    between atoms: _306  and  _309
REMARK  139  A    between atoms: _309  and  _310
REMARK  140  A    between atoms: _316  and  _318
REMARK  141  A    between atoms: _318  and  _319
REMARK  142  A    between atoms: _318  and  _321
REMARK  143  A    between atoms: _321  and  _322
REMARK  144  A    between atoms: _326  and  _327
REMARK  145  A    between atoms: _332  and  _334
REMARK  146  A    between atoms: _334  and  _335
REMARK  147  A    between atoms: _334  and  _337
REMARK  148  A    between atoms: _337  and  _338
REMARK  149  A    between atoms: _343  and  _344
REMARK  150  A    between atoms: _346  and  _348
REMARK  151  A    between atoms: _348  and  _349
REMARK  152  A    between atoms: _351  and  _353
REMARK  153  A    between atoms: _353  and  _354
REMARK  154  A    between atoms: _353  and  _356
REMARK  155  A    between atoms: _356  and  _357
REMARK  156  A    between atoms: _359  and  _361
REMARK  157  A    between atoms: _361  and  _362
REMARK  158  A    between atoms: _361  and  _364
REMARK  159  A    between atoms: _364  and  _365
REMARK  160  A    between atoms: _368  and  _370
REMARK  161  A    between atoms: _370  and  _371
REMARK  162  A    between atoms: _370  and  _373
REMARK  163  A    between atoms: _373  and  _374
REMARK  164  A    between atoms: _374  and  _375
REMARK  165  A    between atoms: _375  and  _376
REMARK  166  A    between atoms: _385  and  _387
REMARK  167  A    between atoms: _387  and  _388
REMARK  168  A    between atoms: _387  and  _390
REMARK  169  A    between atoms: _390  and  _391
REMARK  170  A    between atoms: _391  and  _392
REMARK  171  A    between atoms: _395  and  _397
REMARK  172  A    between atoms: _397  and  _398
REMARK  173  A    between atoms: _397  and  _400
REMARK  174  A    between atoms: _400  and  _401
REMARK  175  A    between atoms: _404  and  _406
REMARK  176  A    between atoms: _406  and  _407
REMARK  177  A    between atoms: _410  and  _412
REMARK  178  A    between atoms: _412  and  _413
REMARK  179  A    between atoms: _412  and  _415
REMARK  180  A    between atoms: _415  and  _416
REMARK  181  A    between atoms: _419  and  _421
REMARK  182  A    between atoms: _421  and  _422
REMARK  183  A    between atoms: _421  and  _424
REMARK  184  A    between atoms: _424  and  _425
REMARK  185  A    between atoms: _425  and  _426
REMARK  186  A    between atoms: _426  and  _427
REMARK  187  A    between atoms: _436  and  _438
REMARK  188  A    between atoms: _438  and  _439
REMARK  189  A    between atoms: _438  and  _441
REMARK  190  A    between atoms: _441  and  _442
REMARK  191  A    between atoms: _447  and  _449
REMARK  192  A    between atoms: _449  and  _450
REMARK  193  A    between atoms: _449  and  _452
REMARK  194  A    between atoms: _452  and  _453
REMARK  195  A    between atoms: _456  and  _458
REMARK  196  A    between atoms: _458  and  _459
REMARK  197  A    between atoms: _458  and  _461
REMARK  198  A    between atoms: _461  and  _462
REMARK  199  A    between atoms: _465  and  _467
REMARK  200  A    between atoms: _467  and  _468
REMARK  201  A    between atoms: _467  and  _470
REMARK  202  A    between atoms: _473  and  _475
REMARK  203  A    between atoms: _475  and  _476
REMARK  204  A    between atoms: _475  and  _478
REMARK  205  A    between atoms: _478  and  _479
REMARK  206  A    between atoms: _479  and  _480
REMARK  207  A    between atoms: _483  and  _485
REMARK  208  A    between atoms: _485  and  _486
REMARK  209  A    between atoms: _485  and  _488
REMARK  210  A    between atoms: _488  and  _489
REMARK  211  A    between atoms: _489  and  _490
REMARK  212  A    between atoms: _490  and  _491
REMARK  213  A    between atoms: _491  and  _492
REMARK  214  A    between atoms: _496  and  _498
REMARK  215  A    between atoms: _498  and  _499
REMARK  216  A    between atoms: _498  and  _501
REMARK  217  A    between atoms: _501  and  _502
REMARK  218  A    between atoms: _505  and  _507
REMARK  219  A    between atoms: _507  and  _508
REMARK  220  A    between atoms: _510  and  _512
REMARK  221  A    between atoms: _512  and  _513
REMARK  222  A    between atoms: _512  and  _515
REMARK  223  A    between atoms: _515  and  _516
REMARK  224  A    between atoms: _519  and  _521
REMARK  225  A    between atoms: _521  and  _522
REMARK  226  A    between atoms: _521  and  _524
REMARK  227  A    between atoms: _524  and  _525
REMARK  228  A    between atoms: _531  and  _533
REMARK  229  A    between atoms: _533  and  _534
REMARK  230  A    between atoms: _536  and  _538
REMARK  231  A    between atoms: _538  and  _539
REMARK  232  A    between atoms: _538  and  _541
REMARK  233  A    between atoms: _541  and  _542
REMARK                            x       y       z     vdW  Elec       q    Type
REMARK                         _______ _______ _______ _____ _____    ______ ____
ROOT
ATOM      1  CG  LYS A   1      10.763  24.871  23.384  0.00  0.00    -0.000 C 
ENDROOT
BRANCH   1   2
ATOM      2  CB  LYS A   1       9.504  24.011  23.259  0.00  0.00    +0.025 C 
BRANCH   2   3
ATOM      3  CA  LYS A   1       9.814  22.555  23.512  0.00  0.00    +0.133 C 
BRANCH   3   4
ATOM      4  N   LYS A   1      10.391  21.951  22.306  0.00  0.00    -0.239 NA
ATOM      5  H   LYS A   1       9.831  21.913  21.430  0.00  0.00    +0.142 HD
ENDBRANCH   3   4
BRANCH   3   6
ATOM      6  C   LYS A   1       8.574  21.826  24.013  0.00  0.00    +0.224 C 
ATOM      7  O   LYS A   1       8.296  21.816  25.201  0.00  0.00    -0.287 OA
ENDBRANCH   3   6
ENDBRANCH   2   3
ENDBRANCH   1   2
BRANCH   1   8
ATOM      8  CD  LYS A   1      10.419  26.356  23.197  0.00  0.00    -0.024 C 
BRANCH   8   9
ATOM      9  CE  LYS A   1      11.446  27.219  23.847  0.00  0.00    -0.086 C 
BRANCH   9  10
ATOM     10  NZ  LYS A   1      11.257  27.130  25.324  0.00  0.00    +0.380 N 
ATOM     11  HZ1 LYS A   1      11.965  27.726  25.799  0.00  0.00    -0.089 HD
ATOM     12  HZ2 LYS A   1      11.373  26.142  25.628  0.00  0.00    -0.089 HD
ATOM     13  HZ3 LYS A   1      10.302  27.460  25.571  0.00  0.00    -0.089 HD
ENDBRANCH   9  10
ENDBRANCH   8   9
ENDBRANCH   1   8
TORSDOF 7
REMARK  Name = ../refined-set-2016/4e6q/4e6q_pocket.pdb
REMARK  233 active torsions:
REMARK  status: ('A' for Active; 'I' for Inactive)
REMARK    1  A    between atoms: _1  and  _3
REMARK    2  A    between atoms: _3  and  _4
REMARK    3  A    between atoms: _3  and  _6
REMARK    4  A    between atoms: _6  and  _7
REMARK    5  A    between atoms: _7  and  _8
REMARK    6  A    between atoms: _8  and  _9
REMARK    7  A    between atoms: _18  and  _20
REMARK    8  A    between atoms: _20  and  _21
REMARK    9  A    between atoms: _20  and  _23
REMARK   10  A    between atoms: _23  and  _24
REMARK   11  A    between atoms: _24  and  _25
REMARK   12  A    between atoms: _30  and  _32
REMARK   13  A    between atoms: _32  and  _33
REMARK   14  A    between atoms: _32  and  _35
REMARK   15  A    between atoms: _35  and  _36
REMARK   16  A    between atoms: _39  and  _41
REMARK   17  A    between atoms: _41  and  _42
REMARK   18  A    between atoms: _44  and  _46
REMARK   19  A    between atoms: _46  and  _47
REMARK   20  A    between atoms: _46  and  _49
REMARK   21  A    between atoms: _49  and  _50
REMARK   22  A    between atoms: _50  and  _51
REMARK   23  A    between atoms: _51  and  _52
REMARK   24  A    between atoms: _52  and  _53
REMARK   25  A    between atoms: _57  and  _59
REMARK   26  A    between atoms: _59  and  _60
REMARK   27  A    between atoms: _62  and  _64
REMARK   28  A    between atoms: _64  and  _65
REMARK   29  A    between atoms: _64  and  _67
REMARK   30  A    between atoms: _67  and  _68
REMARK   31  A    between atoms: _73  and  _75
REMARK   32  A    between atoms: _75  and  _76
REMARK   33  A    between atoms: _75  and  _78
REMARK   34  A    between atoms: _78  and  _79
REMARK   35  A    between atoms: _85  and  _87
REMARK   36  A    between atoms: _87  and  _88
REMARK   37  A    between atoms: _90  and  _92
REMARK   38  A    between atoms: _92  and  _93
REMARK   39  A    between atoms: _92  and  _95
REMARK   40  A    between atoms: _95  and  _96
REMARK   41  A    between atoms: _98  and  _100
REMARK   42  A    between atoms: _100  and  _101
REMARK   43  A    between atoms: _100  and  _103
REMARK   44  A    between atoms: _106  and  _108
REMARK   45  A    between atoms: _108  and  _109
REMARK   46  A    between atoms: _108  and  _111
REMARK   47  A    between atoms: _111  and  _112
REMARK   48  A    between atoms: _112  and  _113
REMARK   49  A    between atoms: _116  and  _118
REMARK   50  A    between atoms: _118  and  _119
REMARK   51  A    between atoms: _118  and  _121
REMARK   52  A    between atoms: _121  and  _122
REMARK   53  A    between atoms: _122  and  _123
REMARK   54  A    between atoms: _125  and  _127
REMARK   55  A    between atoms: _127  and  _128
REMARK   56  A    between atoms: _127  and  _130
REMARK   57  A    between atoms: _133  and  _135
REMARK   58  A    between atoms: _135  and  _136
REMARK   59  A    between atoms: _135  and  _138
REMARK   60  A    between atoms: _141  and  _143
REMARK   61  A    between atoms: _143  and  _144
REMARK   62  A    between atoms: _147  and  _149
REMARK   63  A    between atoms: _149  and  _150
REMARK   64  A    between atoms: _149  and  _152
REMARK   65  A    between atoms: _155  and  _157
REMARK   66  A    between atoms: _157  and  _158
REMARK   67  A    between atoms: _157  and  _160
REMARK   68  A    between atoms: _160  and  _161
REMARK   69  A    between atoms: _161  and  _162
REMARK   70  A    between atoms: _162  and  _163
REMARK   71  A    between atoms: _163  and  _164
REMARK   72  A    between atoms: _168  and  _170
REMARK   73  A    between atoms: _170  and  _171
REMARK   74  A    between atoms: _170  and  _173
REMARK   75  A    between atoms: _173  and  _174
REMARK   76  A    between atoms: _174  and  _175
REMARK   77  A    between atoms: _175  and  _176
REMARK   78  A    between atoms: _176  and  _177
REMARK   79  A    between atoms: _181  and  _183
REMARK   80  A    between atoms: _183  and  _184
REMARK   81  A    between atoms: _183  and  _186
REMARK   82  A    between atoms: _186  and  _187
REMARK   83  A    between atoms: _190  and  _192
REMARK   84  A    between atoms: _192  and  _193
REMARK   85  A    between atoms: _192  and  _195
REMARK   86  A    between atoms: _195  and  _196
REMARK   87  A    between atoms: _196  and  _197
REMARK   88  A    between atoms: _202  and  _204
REMARK   89  A    between atoms: _204  and  _205
REMARK   90  A    between atoms: _204  and  _207
REMARK   91  A    between atoms: _207  and  _208
REMARK   92  A    between atoms: _214  and  _216
REMARK   93  A    between atoms: _216  and  _217
REMARK   94  A    between atoms: _216  and  _219
REMARK   95  A    between atoms: _219  and  _220
REMARK   96  A    between atoms: _220  and  _221
REMARK   97  A    between atoms: _224  and  _226
REMARK   98  A    between atoms: _226  and  _227
REMARK   99  A    between atoms: _226  and  _229
REMARK  100  A    between atoms: _229  and  _230
REMARK  101  A    between atoms: _233  and  _235
REMARK  102  A    between atoms: _235  and  _236
REMARK  103  A    between atoms: _235  and  _238
REMARK  104  A    between atoms: _241  and  _243
REMARK  105  A    between atoms: _243  and  _244
REMARK  106  A    between atoms: _243  and  _246
REMARK  107  A    between atoms: _246  and  _247
REMARK  108  A    between atoms: _247  and  _248
REMARK  109  A    between atoms: _248  and  _249
REMARK  110  A    between atoms: _249  and  _250
REMARK  111  A    between atoms: _254  and  _256
REMARK  112  A    between atoms: _256  and  _257
REMARK  113  A    between atoms: _256  and  _259
REMARK  114  A    between atoms: _259  and  _260
REMARK  115  A    between atoms: _260  and  _261
REMARK  116  A    between atoms: _261  and  _262
REMARK  117  A    between atoms: _262  and  _263
REMARK  118  A    between atoms: _267  and  _269
REMARK  119  A    between atoms: _269  and  _270
REMARK  120  A    between atoms: _269  and  _272
REMARK  121  A    between atoms: _272  and  _273
REMARK  122  A    between atoms: _276  and  _278
REMARK  123  A    between atoms: _278  and  _279
REMARK  124  A    between atoms: _278  and  _281
REMARK  125  A    between atoms: _281  and  _282
REMARK  126  A    between atoms: _285  and  _287
REMARK  127  A    between atoms: _287  and  _288
REMARK  128  A    between atoms: _287  and  _290
REMARK  129  A    between atoms: _290  and  _291
REMARK  130  A    between atoms: _291  and  _292
REMARK  131  A    between atoms: _294  and  _296
REMARK  132  A    between atoms: _296  and  _297
REMARK  133  A    between atoms: _296  and  _299
REMARK  134  A    between atoms: _299  and  _300
REMARK  135  A    between atoms: _300  and  _301
REMARK  136  A    between atoms: _304  and  _306
REMARK  137  A    between atoms: _306  and  _307
REMARK  138  A    between atoms: _306  and  _309
REMARK  139  A    between atoms: _309  and  _310
REMARK  140  A    between atoms: _316  and  _318
REMARK  141  A    between atoms: _318  and  _319
REMARK  142  A    between atoms: _318  and  _321
REMARK  143  A    between atoms: _321  and  _322
REMARK  144  A    between atoms: _326  and  _327
REMARK  145  A    between atoms: _332  and  _334
REMARK  146  A    between atoms: _334  and  _335
REMARK  147  A    between atoms: _334  and  _337
REMARK  148  A    between atoms: _337  and  _338
REMARK  149  A    between atoms: _343  and  _344
REMARK  150  A    between atoms: _346  and  _348
REMARK  151  A    between atoms: _348  and  _349
REMARK  152  A    between atoms: _351  and  _353
REMARK  153  A    between atoms: _353  and  _354
REMARK  154  A    between atoms: _353  and  _356
REMARK  155  A    between atoms: _356  and  _357
REMARK  156  A    between atoms: _359  and  _361
REMARK  157  A    between atoms: _361  and  _362
REMARK  158  A    between atoms: _361  and  _364
REMARK  159  A    between atoms: _364  and  _365
REMARK  160  A    between atoms: _368  and  _370
REMARK  161  A    between atoms: _370  and  _371
REMARK  162  A    between atoms: _370  and  _373
REMARK  163  A    between atoms: _373  and  _374
REMARK  164  A    between atoms: _374  and  _375
REMARK  165  A    between atoms: _375  and  _376
REMARK  166  A    between atoms: _385  and  _387
REMARK  167  A    between atoms: _387  and  _388
REMARK  168  A    between atoms: _387  and  _390
REMARK  169  A    between atoms: _390  and  _391
REMARK  170  A    between atoms: _391  and  _392
REMARK  171  A    between atoms: _395  and  _397
REMARK  172  A    between atoms: _397  and  _398
REMARK  173  A    between atoms: _397  and  _400
REMARK  174  A    between atoms: _400  and  _401
REMARK  175  A    between atoms: _404  and  _406
REMARK  176  A    between atoms: _406  and  _407
REMARK  177  A    between atoms: _410  and  _412
REMARK  178  A    between atoms: _412  and  _413
REMARK  179  A    between atoms: _412  and  _415
REMARK  180  A    between atoms: _415  and  _416
REMARK  181  A    between atoms: _419  and  _421
REMARK  182  A    between atoms: _421  and  _422
REMARK  183  A    between atoms: _421  and  _424
REMARK  184  A    between atoms: _424  and  _425
REMARK  185  A    between atoms: _425  and  _426
REMARK  186  A    between atoms: _426  and  _427
REMARK  187  A    between atoms: _436  and  _438
REMARK  188  A    between atoms: _438  and  _439
REMARK  189  A    between atoms: _438  and  _441
REMARK  190  A    between atoms: _441  and  _442
REMARK  191  A    between atoms: _447  and  _449
REMARK  192  A    between atoms: _449  and  _450
REMARK  193  A    between atoms: _449  and  _452
REMARK  194  A    between atoms: _452  and  _453
REMARK  195  A    between atoms: _456  and  _458
REMARK  196  A    between atoms: _458  and  _459
REMARK  197  A    between atoms: _458  and  _461
REMARK  198  A    between atoms: _461  and  _462
REMARK  199  A    between atoms: _465  and  _467
REMARK  200  A    between atoms: _467  and  _468
REMARK  201  A    between atoms: _467  and  _470
REMARK  202  A    between atoms: _473  and  _475
REMARK  203  A    between atoms: _475  and  _476
REMARK  204  A    between atoms: _475  and  _478
REMARK  205  A    between atoms: _478  and  _479
REMARK  206  A    between atoms: _479  and  _480
REMARK  207  A    between atoms: _483  and  _485
REMARK  208  A    between atoms: _485  and  _486
REMARK  209  A    between atoms: _485  and  _488
REMARK  210  A    between atoms: _488  and  _489
REMARK  211  A    between atoms: _489  and  _490
REMARK  212  A    between atoms: _490  and  _491
REMARK  213  A    between atoms: _491  and  _492
REMARK  214  A    between atoms: _496  and  _498
REMARK  215  A    between atoms: _498  and  _499
REMARK  216  A    between atoms: _498  and  _501
REMARK  217  A    between atoms: _501  and  _502
REMARK  218  A    between atoms: _505  and  _507
REMARK  219  A    between atoms: _507  and  _508
REMARK  220  A    between atoms: _510  and  _512
REMARK  221  A    between atoms: _512  and  _513
REMARK  222  A    between atoms: _512  and  _515
REMARK  223  A    between atoms: _515  and  _516
REMARK  224  A    between atoms: _519  and  _521
REMARK  225  A    between atoms: _521  and  _522
REMARK  226  A    between atoms: _521  and  _524
REMARK  227  A    between atoms: _524  and  _525
REMARK  228  A    between atoms: _531  and  _533
REMARK  229  A    between atoms: _533  and  _534
REMARK  230  A    between atoms: _536  and  _538
REMARK  231  A    between atoms: _538  and  _539
REMARK  232  A    between atoms: _538  and  _541
REMARK  233  A    between atoms: _541  and  _542
REMARK                            x       y       z     vdW  Elec       q    Type
REMARK                         _______ _______ _______ _____ _____    ______ ____
ROOT
ATOM      1  C   PRO A   7      16.354  34.991  13.820  0.00  0.00    +0.241 C 
ATOM      2  N   TYR A   8      17.561  34.451  13.591  0.00  0.00    -0.297 N 
ATOM      3  H   TYR A   8      18.035  33.900  14.335  0.00  0.00    +0.150 HD
ATOM      4  O   PRO A   7      15.735  35.615  12.964  0.00  0.00    -0.273 OA
ENDROOT
BRANCH   1  10
ATOM      5  C   LEU A   6      15.601  32.317  15.256  0.00  0.00    +0.244 C 
ATOM      6  N   PRO A   7      15.864  33.514  15.807  0.00  0.00    -0.272 N 
ATOM      7  CD  PRO A   7      16.368  33.615  17.184  0.00  0.00    +0.094 C 
ATOM      8  CG  PRO A   7      16.242  35.078  17.470  0.00  0.00    +0.024 C 
ATOM      9  CB  PRO A   7      16.260  35.805  16.207  0.00  0.00    +0.031 C 
ATOM     10  CA  PRO A   7      15.659  34.826  15.191  0.00  0.00    +0.152 C 
ATOM     11  O   LEU A   6      15.195  32.170  14.094  0.00  0.00    -0.273 OA
BRANCH   5  12
ATOM     12  CA  LEU A   6      15.781  31.123  16.152  0.00  0.00    +0.149 C 
BRANCH  12  15
ATOM     13  C   PHE A   5      13.823  30.737  17.514  0.00  0.00    +0.241 C 
ATOM     14  O   PHE A   5      14.347  31.333  18.470  0.00  0.00    -0.273 OA
ATOM     15  N   LEU A   6      14.452  30.577  16.355  0.00  0.00    -0.297 N 
ATOM     16  H   LEU A   6      13.987  30.055  15.585  0.00  0.00    +0.150 HD
BRANCH  13  17
ATOM     17  CA  PHE A   5      12.428  30.110  17.633  0.00  0.00    +0.153 C 
BRANCH  17  19
ATOM     18  C   GLU A   4      12.451  27.895  18.664  0.00  0.00    +0.241 C 
ATOM     19  N   PHE A   5      12.426  29.226  18.781  0.00  0.00    -0.297 N 
ATOM     20  H   PHE A   5      12.404  29.644  19.733  0.00  0.00    +0.150 HD
ATOM     21  O   GLU A   4      12.462  27.297  17.590  0.00  0.00    -0.273 OA
BRANCH  18  22
ATOM     22  CA  GLU A   4      12.494  27.144  19.984  0.00  0.00    +0.149 C 
BRANCH  22  24
ATOM     23  C   MET A   3      10.644  25.700  19.419  0.00  0.00    +0.241 C 
ATOM     24  N   GLU A   4      11.902  25.806  19.847  0.00  0.00    -0.297 N 
ATOM     25  H   GLU A   4      12.455  24.957  20.080  0.00  0.00    +0.150 HD
ATOM     26  O   MET A   3       9.878  26.661  19.305  0.00  0.00    -0.273 OA
BRANCH  23  27
ATOM     27  CA  MET A   3      10.155  24.327  18.981  0.00  0.00    +0.149 C 
BRANCH  27  30
ATOM     28  C   ILE A   2       7.981  23.370  19.604  0.00  0.00    +0.241 C 
ATOM     29  O   ILE A   2       8.479  22.446  20.237  0.00  0.00    -0.273 OA
ATOM     30  N   MET A   3       8.701  24.344  19.038  0.00  0.00    -0.297 N 
ATOM     31  H   MET A   3       8.198  25.152  18.619  0.00  0.00    +0.150 HD
BRANCH  28  32
ATOM     32  CA  ILE A   2       6.475  23.453  19.449  0.00  0.00    +0.148 C 
BRANCH  32  34
ATOM     33  C   LEU A   1       5.538  21.948  17.833  0.00  0.00    +0.238 C 
ATOM     34  N   ILE A   2       6.008  22.125  19.054  0.00  0.00    -0.297 N 
ATOM     35  H   ILE A   2       6.046  21.331  19.725  0.00  0.00    +0.150 HD
ATOM     36  O   LEU A   1       5.543  22.832  17.027  0.00  0.00    -0.274 OA
BRANCH  33  37
ATOM     37  CA  LEU A   1       4.973  20.588  17.440  0.00  0.00    +0.145 C 
BRANCH  37  38
ATOM     38  N   LEU A   1       3.649  20.723  16.810  0.00  0.00    -0.238 NA
ATOM     39  H   LEU A   1       3.599  21.067  15.830  0.00  0.00    +0.142 HD
ENDBRANCH  37  38
BRANCH  37  40
ATOM     40  CB  LEU A   1       5.924  19.924  16.446  0.00  0.00    +0.026 C 
BRANCH  40  41
ATOM     41  CG  LEU A   1       7.398  19.825  16.789  0.00  0.00    +0.002 C 
ATOM     42  CD2 LEU A   1       7.748  19.172  18.195  0.00  0.00    +0.000 C 
ATOM     43  CD1 LEU A   1       8.071  19.093  15.615  0.00  0.00    +0.000 C 
ENDBRANCH  40  41
ENDBRANCH  37  40
ENDBRANCH  33  37
ENDBRANCH  32  34
BRANCH  32  44
ATOM     44  CB  ILE A   2       5.889  23.956  20.770  0.00  0.00    +0.027 C 
ATOM     45  CG2 ILE A   2       6.247  25.429  20.932  0.00  0.00    +0.002 C 
BRANCH  44  46
ATOM     46  CG1 ILE A   2       4.368  23.751  20.852  0.00  0.00    +0.002 C 
ATOM     47  CD1 ILE A   2       3.620  24.395  19.803  0.00  0.00    +0.000 C 
ENDBRANCH  44  46
ENDBRANCH  32  44
ENDBRANCH  28  32
ENDBRANCH  27  30
BRANCH  27  48
ATOM     48  CB  MET A   3      10.583  24.065  17.528  0.00  0.00    +0.041 C 
BRANCH  48  49
ATOM     49  CG  MET A   3      10.236  22.692  17.075  0.00  0.00    +0.060 C 
BRANCH  49  50
ATOM     50  SD  MET A   3      10.803  22.485  15.417  0.00  0.00    -0.139 S 
ATOM     51  CE  MET A   3       9.457  23.313  14.563  0.00  0.00    +0.069 C 
ENDBRANCH  49  50
ENDBRANCH  48  49
ENDBRANCH  27  48
ENDBRANCH  23  27
ENDBRANCH  22  24
BRANCH  22  52
ATOM     52  CB  GLU A   4      13.948  27.118  20.502  0.00  0.00    +0.041 C 
BRANCH  52  53
ATOM     53  CG  GLU A   4      14.905  26.360  19.612  0.00  0.00    +0.116 C 
BRANCH  53  54
ATOM     54  CD  GLU A   4      16.316  26.373  20.169  0.00  0.00    +0.365 C 
ATOM     55  OE2 GLU A   4      16.541  26.969  21.251  0.00  0.00    -0.246 OA
ATOM     56  OE1 GLU A   4      17.201  25.769  19.520  0.00  0.00    -0.246 OA
ENDBRANCH  53  54
ENDBRANCH  52  53
ENDBRANCH  22  52
ENDBRANCH  18  22
ENDBRANCH  17  19
BRANCH  17  57
ATOM     57  CB  PHE A   5      11.374  31.208  17.784  0.00  0.00    +0.055 C 
BRANCH  57  58
ATOM     58  CG  PHE A   5      11.499  32.327  16.748  0.00  0.00    -0.020 A 
ATOM     59  CD2 PHE A   5      11.917  33.587  17.128  0.00  0.00    -0.004 A 
ATOM     60  CE2 PHE A   5      12.000  34.612  16.215  0.00  0.00    -0.000 A 
ATOM     61  CZ  PHE A   5      11.707  34.385  14.894  0.00  0.00    -0.000 A 
ATOM     62  CE1 PHE A   5      11.272  33.132  14.486  0.00  0.00    -0.000 A 
ATOM     63  CD1 PHE A   5      11.172  32.104  15.410  0.00  0.00    -0.004 A 
ENDBRANCH  57  58
ENDBRANCH  17  57
ENDBRANCH  13  17
ENDBRANCH  12  15
BRANCH  12  64
ATOM     64  CB  LEU A   6      16.701  30.064  15.531  0.00  0.00    +0.029 C 
BRANCH  64  65
ATOM     65  CG  LEU A   6      16.875  28.819  16.396  0.00  0.00    +0.002 C 
ATOM     66  CD2 LEU A   6      17.252  29.221  17.782  0.00  0.00    +0.000 C 
ATOM     67  CD1 LEU A   6      17.894  27.855  15.808  0.00  0.00    +0.000 C 
ENDBRANCH  64  65
ENDBRANCH  12  64
ENDBRANCH   5  12
ENDBRANCH   1  10
BRANCH   2  68
ATOM     68  CA  TYR A   8      18.211  34.640  12.288  0.00  0.00    +0.153 C 
BRANCH  68  69
ATOM     69  C   TYR A   8      17.685  33.839  11.080  0.00  0.00    +0.241 C 
ATOM     70  N   GLY A   9      16.748  32.927  11.328  0.00  0.00    -0.295 N 
ATOM     71  H   GLY A   9      16.463  32.752  12.313  0.00  0.00    +0.150 HD
ATOM     72  O   TYR A   8      18.111  34.081   9.929  0.00  0.00    -0.273 OA
BRANCH  70  73
ATOM     73  CA  GLY A   9      16.109  32.166  10.260  0.00  0.00    +0.176 C 
BRANCH  73  74
ATOM     74  C   GLY A   9      16.987  31.028   9.734  0.00  0.00    +0.243 C 
ATOM     75  O   GLY A   9      17.854  30.541  10.461  0.00  0.00    -0.273 OA
ATOM     76  N   SER A  10      16.741  30.565   8.507  0.00  0.00    -0.295 N 
ATOM     77  H   SER A  10      16.020  31.026   7.916  0.00  0.00    +0.150 HD
BRANCH  76  78
ATOM     78  CA  SER A  10      17.475  29.419   7.990  0.00  0.00    +0.178 C 
BRANCH  78  79
ATOM     79  C   SER A  10      18.804  29.916   7.520  0.00  0.00    +0.243 C 
ATOM     80  N   LEU A  11      19.845  29.082   7.614  0.00  0.00    -0.297 N 
ATOM     81  H   LEU A  11      19.714  28.168   8.093  0.00  0.00    +0.150 HD
ATOM     82  O   SER A  10      18.890  31.083   7.075  0.00  0.00    -0.273 OA
BRANCH  80  83
ATOM     83  CA  LEU A  11      21.192  29.419   7.054  0.00  0.00    +0.149 C 
BRANCH  83  84
ATOM     84  C   LEU A  11      21.157  30.018   5.606  0.00  0.00    +0.241 C 
ATOM     85  O   LEU A  11      21.960  30.904   5.225  0.00  0.00    -0.273 OA
ATOM     86  N   ARG A  12      20.209  29.532   4.812  0.00  0.00    -0.297 N 
ATOM     87  H   ARG A  12      19.535  28.839   5.196  0.00  0.00    +0.150 HD
BRANCH  86  88
ATOM     88  CA  ARG A  12      20.087  29.938   3.430  0.00  0.00    +0.149 C 
BRANCH  88  89
ATOM     89  C   ARG A  12      19.781  31.432   3.310  0.00  0.00    +0.241 C 
ATOM     90  N   GLU A  13      18.723  31.900   3.979  0.00  0.00    -0.298 N 
ATOM     91  H   GLU A  13      18.150  31.246   4.550  0.00  0.00    +0.150 HD
ATOM     92  O   ARG A  12      20.455  32.142   2.570  0.00  0.00    -0.273 OA
BRANCH  90  93
ATOM     93  CA  GLU A  13      18.352  33.327   3.923  0.00  0.00    +0.137 C 
BRANCH  93  94
ATOM     94  C   GLU A  13      19.389  34.174   4.698  0.00  0.00    +0.227 C 
ATOM     95  O   GLU A  13      19.697  35.299   4.312  0.00  0.00    -0.286 OA
ENDBRANCH  93  94
BRANCH  93  96
ATOM     96  CB  GLU A  13      16.912  33.575   4.401  0.00  0.00    +0.039 C 
BRANCH  96  97
ATOM     97  CG  GLU A  13      16.761  33.533   5.900  0.00  0.00    +0.116 C 
BRANCH  97  98
ATOM     98  CD  GLU A  13      15.313  33.679   6.404  0.00  0.00    +0.365 C 
ATOM     99  OE2 GLU A  13      14.699  32.641   6.880  0.00  0.00    -0.246 OA
ATOM    100  OE1 GLU A  13      14.828  34.855   6.352  0.00  0.00    -0.246 OA
ENDBRANCH  97  98
ENDBRANCH  96  97
ENDBRANCH  93  96
ENDBRANCH  90  93
ENDBRANCH  88  89
BRANCH  88 101
ATOM    101  CB  ARG A  12      18.976  29.098   2.770  0.00  0.00    +0.033 C 
BRANCH 101 102
ATOM    102  CG  ARG A  12      18.819  29.301   1.284  0.00  0.00    +0.045 C 
BRANCH 102 103
ATOM    103  CD  ARG A  12      17.801  28.319   0.673  0.00  0.00    +0.174 C 
BRANCH 103 104
ATOM    104  NE  ARG A  12      17.848  28.346  -0.796  0.00  0.00    -0.265 N 
ATOM    105  HE  ARG A  12      17.171  28.964  -1.288  0.00  0.00    +0.259 HD
ATOM    106  CZ  ARG A  12      18.697  27.635  -1.548  0.00  0.00    +0.342 C 
ATOM    107  NH2 ARG A  12      19.573  26.815  -0.982  0.00  0.00    -0.292 N 
ATOM    108 HH21 ARG A  12      19.604  26.721   0.053  0.00  0.00    +0.255 HD
ATOM    109 HH22 ARG A  12      20.229  26.266  -1.574  0.00  0.00    +0.255 HD
ATOM    110  NH1 ARG A  12      18.670  27.738  -2.874  0.00  0.00    -0.292 N 
ATOM    111 HH11 ARG A  12      17.986  28.374  -3.332  0.00  0.00    +0.255 HD
ATOM    112 HH12 ARG A  12      19.332  27.183  -3.452  0.00  0.00    +0.255 HD
ENDBRANCH 103 104
ENDBRANCH 102 103
ENDBRANCH 101 102
ENDBRANCH  88 101
ENDBRANCH  86  88
ENDBRANCH  83  84
BRANCH  83 113
ATOM    113  CB  LEU A  11      22.129  28.179   7.160  0.00  0.00    +0.029 C 
BRANCH 113 114
ATOM    114  CG  LEU A  11      23.569  28.362   6.658  0.00  0.00    +0.002 C 
ATOM    115  CD2 LEU A  11      24.176  29.574   7.354  0.00  0.00    +0.000 C 
ATOM    116  CD1 LEU A  11      24.417  27.123   6.845  0.00  0.00    +0.000 C 
ENDBRANCH 113 114
ENDBRANCH  83 113
ENDBRANCH  80  83
ENDBRANCH  78  79
BRANCH  78 117
ATOM    117  CB  SER A  10      16.747  28.767   6.825  0.00  0.00    +0.166 C 
BRANCH 117 118
ATOM    118  OG  SER A  10      17.009  29.514   5.656  0.00  0.00    -0.380 OA
ATOM    119  H   SER A  10      17.984  29.523   5.483  0.00  0.00    +0.211 HD
ENDBRANCH 117 118
ENDBRANCH  78 117
ENDBRANCH  76  78
ENDBRANCH  73  74
ENDBRANCH  70  73
ENDBRANCH  68  69
BRANCH  68 120
ATOM    120  CB  TYR A   8      19.715  34.499  12.418  0.00  0.00    +0.055 C 
BRANCH 120 121
ATOM    121  CG  TYR A   8      20.300  35.591  13.256  0.00  0.00    -0.020 A 
ATOM    122  CD2 TYR A   8      20.618  35.367  14.586  0.00  0.00    -0.001 A 
ATOM    123  CE2 TYR A   8      21.142  36.345  15.358  0.00  0.00    +0.036 A 
ATOM    124  CZ  TYR A   8      21.339  37.587  14.821  0.00  0.00    +0.134 A 
ATOM    125  CE1 TYR A   8      21.010  37.859  13.503  0.00  0.00    +0.036 A 
ATOM    126  CD1 TYR A   8      20.496  36.856  12.730  0.00  0.00    -0.001 A 
BRANCH 124 127
ATOM    127  OH  TYR A   8      21.871  38.578  15.612  0.00  0.00    -0.506 OA
ATOM    128  HH  TYR A   8      21.952  39.412  15.085  0.00  0.00    +0.292 HD
ENDBRANCH 124 127
ENDBRANCH 120 121
ENDBRANCH  68 120
ENDBRANCH   2  68
TORSDOF 53
REMARK  Name = ../refined-set-2016/4e6q/4e6q_pocket.pdb
REMARK  233 active torsions:
REMARK  status: ('A' for Active; 'I' for Inactive)
REMARK    1  A    between atoms: _1  and  _3
REMARK    2  A    between atoms: _3  and  _4
REMARK    3  A    between atoms: _3  and  _6
REMARK    4  A    between atoms: _6  and  _7
REMARK    5  A    between atoms: _7  and  _8
REMARK    6  A    between atoms: _8  and  _9
REMARK    7  A    between atoms: _18  and  _20
REMARK    8  A    between atoms: _20  and  _21
REMARK    9  A    between atoms: _20  and  _23
REMARK   10  A    between atoms: _23  and  _24
REMARK   11  A    between atoms: _24  and  _25
REMARK   12  A    between atoms: _30  and  _32
REMARK   13  A    between atoms: _32  and  _33
REMARK   14  A    between atoms: _32  and  _35
REMARK   15  A    between atoms: _35  and  _36
REMARK   16  A    between atoms: _39  and  _41
REMARK   17  A    between atoms: _41  and  _42
REMARK   18  A    between atoms: _44  and  _46
REMARK   19  A    between atoms: _46  and  _47
REMARK   20  A    between atoms: _46  and  _49
REMARK   21  A    between atoms: _49  and  _50
REMARK   22  A    between atoms: _50  and  _51
REMARK   23  A    between atoms: _51  and  _52
REMARK   24  A    between atoms: _52  and  _53
REMARK   25  A    between atoms: _57  and  _59
REMARK   26  A    between atoms: _59  and  _60
REMARK   27  A    between atoms: _62  and  _64
REMARK   28  A    between atoms: _64  and  _65
REMARK   29  A    between atoms: _64  and  _67
REMARK   30  A    between atoms: _67  and  _68
REMARK   31  A    between atoms: _73  and  _75
REMARK   32  A    between atoms: _75  and  _76
REMARK   33  A    between atoms: _75  and  _78
REMARK   34  A    between atoms: _78  and  _79
REMARK   35  A    between atoms: _85  and  _87
REMARK   36  A    between atoms: _87  and  _88
REMARK   37  A    between atoms: _90  and  _92
REMARK   38  A    between atoms: _92  and  _93
REMARK   39  A    between atoms: _92  and  _95
REMARK   40  A    between atoms: _95  and  _96
REMARK   41  A    between atoms: _98  and  _100
REMARK   42  A    between atoms: _100  and  _101
REMARK   43  A    between atoms: _100  and  _103
REMARK   44  A    between atoms: _106  and  _108
REMARK   45  A    between atoms: _108  and  _109
REMARK   46  A    between atoms: _108  and  _111
REMARK   47  A    between atoms: _111  and  _112
REMARK   48  A    between atoms: _112  and  _113
REMARK   49  A    between atoms: _116  and  _118
REMARK   50  A    between atoms: _118  and  _119
REMARK   51  A    between atoms: _118  and  _121
REMARK   52  A    between atoms: _121  and  _122
REMARK   53  A    between atoms: _122  and  _123
REMARK   54  A    between atoms: _125  and  _127
REMARK   55  A    between atoms: _127  and  _128
REMARK   56  A    between atoms: _127  and  _130
REMARK   57  A    between atoms: _133  and  _135
REMARK   58  A    between atoms: _135  and  _136
REMARK   59  A    between atoms: _135  and  _138
REMARK   60  A    between atoms: _141  and  _143
REMARK   61  A    between atoms: _143  and  _144
REMARK   62  A    between atoms: _147  and  _149
REMARK   63  A    between atoms: _149  and  _150
REMARK   64  A    between atoms: _149  and  _152
REMARK   65  A    between atoms: _155  and  _157
REMARK   66  A    between atoms: _157  and  _158
REMARK   67  A    between atoms: _157  and  _160
REMARK   68  A    between atoms: _160  and  _161
REMARK   69  A    between atoms: _161  and  _162
REMARK   70  A    between atoms: _162  and  _163
REMARK   71  A    between atoms: _163  and  _164
REMARK   72  A    between atoms: _168  and  _170
REMARK   73  A    between atoms: _170  and  _171
REMARK   74  A    between atoms: _170  and  _173
REMARK   75  A    between atoms: _173  and  _174
REMARK   76  A    between atoms: _174  and  _175
REMARK   77  A    between atoms: _175  and  _176
REMARK   78  A    between atoms: _176  and  _177
REMARK   79  A    between atoms: _181  and  _183
REMARK   80  A    between atoms: _183  and  _184
REMARK   81  A    between atoms: _183  and  _186
REMARK   82  A    between atoms: _186  and  _187
REMARK   83  A    between atoms: _190  and  _192
REMARK   84  A    between atoms: _192  and  _193
REMARK   85  A    between atoms: _192  and  _195
REMARK   86  A    between atoms: _195  and  _196
REMARK   87  A    between atoms: _196  and  _197
REMARK   88  A    between atoms: _202  and  _204
REMARK   89  A    between atoms: _204  and  _205
REMARK   90  A    between atoms: _204  and  _207
REMARK   91  A    between atoms: _207  and  _208
REMARK   92  A    between atoms: _214  and  _216
REMARK   93  A    between atoms: _216  and  _217
REMARK   94  A    between atoms: _216  and  _219
REMARK   95  A    between atoms: _219  and  _220
REMARK   96  A    between atoms: _220  and  _221
REMARK   97  A    between atoms: _224  and  _226
REMARK   98  A    between atoms: _226  and  _227
REMARK   99  A    between atoms: _226  and  _229
REMARK  100  A    between atoms: _229  and  _230
REMARK  101  A    between atoms: _233  and  _235
REMARK  102  A    between atoms: _235  and  _236
REMARK  103  A    between atoms: _235  and  _238
REMARK  104  A    between atoms: _241  and  _243
REMARK  105  A    between atoms: _243  and  _244
REMARK  106  A    between atoms: _243  and  _246
REMARK  107  A    between atoms: _246  and  _247
REMARK  108  A    between atoms: _247  and  _248
REMARK  109  A    between atoms: _248  and  _249
REMARK  110  A    between atoms: _249  and  _250
REMARK  111  A    between atoms: _254  and  _256
REMARK  112  A    between atoms: _256  and  _257
REMARK  113  A    between atoms: _256  and  _259
REMARK  114  A    between atoms: _259  and  _260
REMARK  115  A    between atoms: _260  and  _261
REMARK  116  A    between atoms: _261  and  _262
REMARK  117  A    between atoms: _262  and  _263
REMARK  118  A    between atoms: _267  and  _269
REMARK  119  A    between atoms: _269  and  _270
REMARK  120  A    between atoms: _269  and  _272
REMARK  121  A    between atoms: _272  and  _273
REMARK  122  A    between atoms: _276  and  _278
REMARK  123  A    between atoms: _278  and  _279
REMARK  124  A    between atoms: _278  and  _281
REMARK  125  A    between atoms: _281  and  _282
REMARK  126  A    between atoms: _285  and  _287
REMARK  127  A    between atoms: _287  and  _288
REMARK  128  A    between atoms: _287  and  _290
REMARK  129  A    between atoms: _290  and  _291
REMARK  130  A    between atoms: _291  and  _292
REMARK  131  A    between atoms: _294  and  _296
REMARK  132  A    between atoms: _296  and  _297
REMARK  133  A    between atoms: _296  and  _299
REMARK  134  A    between atoms: _299  and  _300
REMARK  135  A    between atoms: _300  and  _301
REMARK  136  A    between atoms: _304  and  _306
REMARK  137  A    between atoms: _306  and  _307
REMARK  138  A    between atoms: _306  and  _309
REMARK  139  A    between atoms: _309  and  _310
REMARK  140  A    between atoms: _316  and  _318
REMARK  141  A    between atoms: _318  and  _319
REMARK  142  A    between atoms: _318  and  _321
REMARK  143  A    between atoms: _321  and  _322
REMARK  144  A    between atoms: _326  and  _327
REMARK  145  A    between atoms: _332  and  _334
REMARK  146  A    between atoms: _334  and  _335
REMARK  147  A    between atoms: _334  and  _337
REMARK  148  A    between atoms: _337  and  _338
REMARK  149  A    between atoms: _343  and  _344
REMARK  150  A    between atoms: _346  and  _348
REMARK  151  A    between atoms: _348  and  _349
REMARK  152  A    between atoms: _351  and  _353
REMARK  153  A    between atoms: _353  and  _354
REMARK  154  A    between atoms: _353  and  _356
REMARK  155  A    between atoms: _356  and  _357
REMARK  156  A    between atoms: _359  and  _361
REMARK  157  A    between atoms: _361  and  _362
REMARK  158  A    between atoms: _361  and  _364
REMARK  159  A    between atoms: _364  and  _365
REMARK  160  A    between atoms: _368  and  _370
REMARK  161  A    between atoms: _370  and  _371
REMARK  162  A    between atoms: _370  and  _373
REMARK  163  A    between atoms: _373  and  _374
REMARK  164  A    between atoms: _374  and  _375
REMARK  165  A    between atoms: _375  and  _376
REMARK  166  A    between atoms: _385  and  _387
REMARK  167  A    between atoms: _387  and  _388
REMARK  168  A    between atoms: _387  and  _390
REMARK  169  A    between atoms: _390  and  _391
REMARK  170  A    between atoms: _391  and  _392
REMARK  171  A    between atoms: _395  and  _397
REMARK  172  A    between atoms: _397  and  _398
REMARK  173  A    between atoms: _397  and  _400
REMARK  174  A    between atoms: _400  and  _401
REMARK  175  A    between atoms: _404  and  _406
REMARK  176  A    between atoms: _406  and  _407
REMARK  177  A    between atoms: _410  and  _412
REMARK  178  A    between atoms: _412  and  _413
REMARK  179  A    between atoms: _412  and  _415
REMARK  180  A    between atoms: _415  and  _416
REMARK  181  A    between atoms: _419  and  _421
REMARK  182  A    between atoms: _421  and  _422
REMARK  183  A    between atoms: _421  and  _424
REMARK  184  A    between atoms: _424  and  _425
REMARK  185  A    between atoms: _425  and  _426
REMARK  186  A    between atoms: _426  and  _427
REMARK  187  A    between atoms: _436  and  _438
REMARK  188  A    between atoms: _438  and  _439
REMARK  189  A    between atoms: _438  and  _441
REMARK  190  A    between atoms: _441  and  _442
REMARK  191  A    between atoms: _447  and  _449
REMARK  192  A    between atoms: _449  and  _450
REMARK  193  A    between atoms: _449  and  _452
REMARK  194  A    between atoms: _452  and  _453
REMARK  195  A    between atoms: _456  and  _458
REMARK  196  A    between atoms: _458  and  _459
REMARK  197  A    between atoms: _458  and  _461
REMARK  198  A    between atoms: _461  and  _462
REMARK  199  A    between atoms: _465  and  _467
REMARK  200  A    between atoms: _467  and  _468
REMARK  201  A    between atoms: _467  and  _470
REMARK  202  A    between atoms: _473  and  _475
REMARK  203  A    between atoms: _475  and  _476
REMARK  204  A    between atoms: _475  and  _478
REMARK  205  A    between atoms: _478  and  _479
REMARK  206  A    between atoms: _479  and  _480
REMARK  207  A    between atoms: _483  and  _485
REMARK  208  A    between atoms: _485  and  _486
REMARK  209  A    between atoms: _485  and  _488
REMARK  210  A    between atoms: _488  and  _489
REMARK  211  A    between atoms: _489  and  _490
REMARK  212  A    between atoms: _490  and  _491
REMARK  213  A    between atoms: _491  and  _492
REMARK  214  A    between atoms: _496  and  _498
REMARK  215  A    between atoms: _498  and  _499
REMARK  216  A    between atoms: _498  and  _501
REMARK  217  A    between atoms: _501  and  _502
REMARK  218  A    between atoms: _505  and  _507
REMARK  219  A    between atoms: _507  and  _508
REMARK  220  A    between atoms: _510  and  _512
REMARK  221  A    between atoms: _512  and  _513
REMARK  222  A    between atoms: _512  and  _515
REMARK  223  A    between atoms: _515  and  _516
REMARK  224  A    between atoms: _519  and  _521
REMARK  225  A    between atoms: _521  and  _522
REMARK  226  A    between atoms: _521  and  _524
REMARK  227  A    between atoms: _524  and  _525
REMARK  228  A    between atoms: _531  and  _533
REMARK  229  A    between atoms: _533  and  _534
REMARK  230  A    between atoms: _536  and  _538
REMARK  231  A    between atoms: _538  and  _539
REMARK  232  A    between atoms: _538  and  _541
REMARK  233  A    between atoms: _541  and  _542
REMARK                            x       y       z     vdW  Elec       q    Type
REMARK                         _______ _______ _______ _____ _____    ______ ____
ROOT
ATOM      1  CA  ASP A   1      17.044  16.187   3.725  0.00  0.00    +0.144 C 
ENDROOT
BRANCH   1   2
ATOM      2  N   ASP A   1      17.454  14.887   4.316  0.00  0.00    -0.239 NA
ATOM      3  H   ASP A   1      18.069  14.871   5.155  0.00  0.00    +0.142 HD
ENDBRANCH   1   2
BRANCH   1   4
ATOM      4  C   ASP A   1      18.008  17.350   4.141  0.00  0.00    +0.225 C 
ATOM      5  O   ASP A   1      17.568  18.435   4.504  0.00  0.00    -0.287 OA
ENDBRANCH   1   4
BRANCH   1   6
ATOM      6  CB  ASP A   1      15.598  16.423   4.242  0.00  0.00    +0.139 C 
BRANCH   6   7
ATOM      7  CG  ASP A   1      14.762  17.460   3.421  0.00  0.00    +0.367 C 
ATOM      8  OD2 ASP A   1      13.807  17.982   4.020  0.00  0.00    -0.246 OA
ATOM      9  OD1 ASP A   1      15.002  17.741   2.231  0.00  0.00    -0.246 OA
ENDBRANCH   6   7
ENDBRANCH   1   6
TORSDOF 4
REMARK  Name = ../refined-set-2016/4e6q/4e6q_pocket.pdb
REMARK  233 active torsions:
REMARK  status: ('A' for Active; 'I' for Inactive)
REMARK    1  A    between atoms: _1  and  _3
REMARK    2  A    between atoms: _3  and  _4
REMARK    3  A    between atoms: _3  and  _6
REMARK    4  A    between atoms: _6  and  _7
REMARK    5  A    between atoms: _7  and  _8
REMARK    6  A    between atoms: _8  and  _9
REMARK    7  A    between atoms: _18  and  _20
REMARK    8  A    between atoms: _20  and  _21
REMARK    9  A    between atoms: _20  and  _23
REMARK   10  A    between atoms: _23  and  _24
REMARK   11  A    between atoms: _24  and  _25
REMARK   12  A    between atoms: _30  and  _32
REMARK   13  A    between atoms: _32  and  _33
REMARK   14  A    between atoms: _32  and  _35
REMARK   15  A    between atoms: _35  and  _36
REMARK   16  A    between atoms: _39  and  _41
REMARK   17  A    between atoms: _41  and  _42
REMARK   18  A    between atoms: _44  and  _46
REMARK   19  A    between atoms: _46  and  _47
REMARK   20  A    between atoms: _46  and  _49
REMARK   21  A    between atoms: _49  and  _50
REMARK   22  A    between atoms: _50  and  _51
REMARK   23  A    between atoms: _51  and  _52
REMARK   24  A    between atoms: _52  and  _53
REMARK   25  A    between atoms: _57  and  _59
REMARK   26  A    between atoms: _59  and  _60
REMARK   27  A    between atoms: _62  and  _64
REMARK   28  A    between atoms: _64  and  _65
REMARK   29  A    between atoms: _64  and  _67
REMARK   30  A    between atoms: _67  and  _68
REMARK   31  A    between atoms: _73  and  _75
REMARK   32  A    between atoms: _75  and  _76
REMARK   33  A    between atoms: _75  and  _78
REMARK   34  A    between atoms: _78  and  _79
REMARK   35  A    between atoms: _85  and  _87
REMARK   36  A    between atoms: _87  and  _88
REMARK   37  A    between atoms: _90  and  _92
REMARK   38  A    between atoms: _92  and  _93
REMARK   39  A    between atoms: _92  and  _95
REMARK   40  A    between atoms: _95  and  _96
REMARK   41  A    between atoms: _98  and  _100
REMARK   42  A    between atoms: _100  and  _101
REMARK   43  A    between atoms: _100  and  _103
REMARK   44  A    between atoms: _106  and  _108
REMARK   45  A    between atoms: _108  and  _109
REMARK   46  A    between atoms: _108  and  _111
REMARK   47  A    between atoms: _111  and  _112
REMARK   48  A    between atoms: _112  and  _113
REMARK   49  A    between atoms: _116  and  _118
REMARK   50  A    between atoms: _118  and  _119
REMARK   51  A    between atoms: _118  and  _121
REMARK   52  A    between atoms: _121  and  _122
REMARK   53  A    between atoms: _122  and  _123
REMARK   54  A    between atoms: _125  and  _127
REMARK   55  A    between atoms: _127  and  _128
REMARK   56  A    between atoms: _127  and  _130
REMARK   57  A    between atoms: _133  and  _135
REMARK   58  A    between atoms: _135  and  _136
REMARK   59  A    between atoms: _135  and  _138
REMARK   60  A    between atoms: _141  and  _143
REMARK   61  A    between atoms: _143  and  _144
REMARK   62  A    between atoms: _147  and  _149
REMARK   63  A    between atoms: _149  and  _150
REMARK   64  A    between atoms: _149  and  _152
REMARK   65  A    between atoms: _155  and  _157
REMARK   66  A    between atoms: _157  and  _158
REMARK   67  A    between atoms: _157  and  _160
REMARK   68  A    between atoms: _160  and  _161
REMARK   69  A    between atoms: _161  and  _162
REMARK   70  A    between atoms: _162  and  _163
REMARK   71  A    between atoms: _163  and  _164
REMARK   72  A    between atoms: _168  and  _170
REMARK   73  A    between atoms: _170  and  _171
REMARK   74  A    between atoms: _170  and  _173
REMARK   75  A    between atoms: _173  and  _174
REMARK   76  A    between atoms: _174  and  _175
REMARK   77  A    between atoms: _175  and  _176
REMARK   78  A    between atoms: _176  and  _177
REMARK   79  A    between atoms: _181  and  _183
REMARK   80  A    between atoms: _183  and  _184
REMARK   81  A    between atoms: _183  and  _186
REMARK   82  A    between atoms: _186  and  _187
REMARK   83  A    between atoms: _190  and  _192
REMARK   84  A    between atoms: _192  and  _193
REMARK   85  A    between atoms: _192  and  _195
REMARK   86  A    between atoms: _195  and  _196
REMARK   87  A    between atoms: _196  and  _197
REMARK   88  A    between atoms: _202  and  _204
REMARK   89  A    between atoms: _204  and  _205
REMARK   90  A    between atoms: _204  and  _207
REMARK   91  A    between atoms: _207  and  _208
REMARK   92  A    between atoms: _214  and  _216
REMARK   93  A    between atoms: _216  and  _217
REMARK   94  A    between atoms: _216  and  _219
REMARK   95  A    between atoms: _219  and  _220
REMARK   96  A    between atoms: _220  and  _221
REMARK   97  A    between atoms: _224  and  _226
REMARK   98  A    between atoms: _226  and  _227
REMARK   99  A    between atoms: _226  and  _229
REMARK  100  A    between atoms: _229  and  _230
REMARK  101  A    between atoms: _233  and  _235
REMARK  102  A    between atoms: _235  and  _236
REMARK  103  A    between atoms: _235  and  _238
REMARK  104  A    between atoms: _241  and  _243
REMARK  105  A    between atoms: _243  and  _244
REMARK  106  A    between atoms: _243  and  _246
REMARK  107  A    between atoms: _246  and  _247
REMARK  108  A    between atoms: _247  and  _248
REMARK  109  A    between atoms: _248  and  _249
REMARK  110  A    between atoms: _249  and  _250
REMARK  111  A    between atoms: _254  and  _256
REMARK  112  A    between atoms: _256  and  _257
REMARK  113  A    between atoms: _256  and  _259
REMARK  114  A    between atoms: _259  and  _260
REMARK  115  A    between atoms: _260  and  _261
REMARK  116  A    between atoms: _261  and  _262
REMARK  117  A    between atoms: _262  and  _263
REMARK  118  A    between atoms: _267  and  _269
REMARK  119  A    between atoms: _269  and  _270
REMARK  120  A    between atoms: _269  and  _272
REMARK  121  A    between atoms: _272  and  _273
REMARK  122  A    between atoms: _276  and  _278
REMARK  123  A    between atoms: _278  and  _279
REMARK  124  A    between atoms: _278  and  _281
REMARK  125  A    between atoms: _281  and  _282
REMARK  126  A    between atoms: _285  and  _287
REMARK  127  A    between atoms: _287  and  _288
REMARK  128  A    between atoms: _287  and  _290
REMARK  129  A    between atoms: _290  and  _291
REMARK  130  A    between atoms: _291  and  _292
REMARK  131  A    between atoms: _294  and  _296
REMARK  132  A    between atoms: _296  and  _297
REMARK  133  A    between atoms: _296  and  _299
REMARK  134  A    between atoms: _299  and  _300
REMARK  135  A    between atoms: _300  and  _301
REMARK  136  A    between atoms: _304  and  _306
REMARK  137  A    between atoms: _306  and  _307
REMARK  138  A    between atoms: _306  and  _309
REMARK  139  A    between atoms: _309  and  _310
REMARK  140  A    between atoms: _316  and  _318
REMARK  141  A    between atoms: _318  and  _319
REMARK  142  A    between atoms: _318  and  _321
REMARK  143  A    between atoms: _321  and  _322
REMARK  144  A    between atoms: _326  and  _327
REMARK  145  A    between atoms: _332  and  _334
REMARK  146  A    between atoms: _334  and  _335
REMARK  147  A    between atoms: _334  and  _337
REMARK  148  A    between atoms: _337  and  _338
REMARK  149  A    between atoms: _343  and  _344
REMARK  150  A    between atoms: _346  and  _348
REMARK  151  A    between atoms: _348  and  _349
REMARK  152  A    between atoms: _351  and  _353
REMARK  153  A    between atoms: _353  and  _354
REMARK  154  A    between atoms: _353  and  _356
REMARK  155  A    between atoms: _356  and  _357
REMARK  156  A    between atoms: _359  and  _361
REMARK  157  A    between atoms: _361  and  _362
REMARK  158  A    between atoms: _361  and  _364
REMARK  159  A    between atoms: _364  and  _365
REMARK  160  A    between atoms: _368  and  _370
REMARK  161  A    between atoms: _370  and  _371
REMARK  162  A    between atoms: _370  and  _373
REMARK  163  A    between atoms: _373  and  _374
REMARK  164  A    between atoms: _374  and  _375
REMARK  165  A    between atoms: _375  and  _376
REMARK  166  A    between atoms: _385  and  _387
REMARK  167  A    between atoms: _387  and  _388
REMARK  168  A    between atoms: _387  and  _390
REMARK  169  A    between atoms: _390  and  _391
REMARK  170  A    between atoms: _391  and  _392
REMARK  171  A    between atoms: _395  and  _397
REMARK  172  A    between atoms: _397  and  _398
REMARK  173  A    between atoms: _397  and  _400
REMARK  174  A    between atoms: _400  and  _401
REMARK  175  A    between atoms: _404  and  _406
REMARK  176  A    between atoms: _406  and  _407
REMARK  177  A    between atoms: _410  and  _412
REMARK  178  A    between atoms: _412  and  _413
REMARK  179  A    between atoms: _412  and  _415
REMARK  180  A    between atoms: _415  and  _416
REMARK  181  A    between atoms: _419  and  _421
REMARK  182  A    between atoms: _421  and  _422
REMARK  183  A    between atoms: _421  and  _424
REMARK  184  A    between atoms: _424  and  _425
REMARK  185  A    between atoms: _425  and  _426
REMARK  186  A    between atoms: _426  and  _427
REMARK  187  A    between atoms: _436  and  _438
REMARK  188  A    between atoms: _438  and  _439
REMARK  189  A    between atoms: _438  and  _441
REMARK  190  A    between atoms: _441  and  _442
REMARK  191  A    between atoms: _447  and  _449
REMARK  192  A    between atoms: _449  and  _450
REMARK  193  A    between atoms: _449  and  _452
REMARK  194  A    between atoms: _452  and  _453
REMARK  195  A    between atoms: _456  and  _458
REMARK  196  A    between atoms: _458  and  _459
REMARK  197  A    between atoms: _458  and  _461
REMARK  198  A    between atoms: _461  and  _462
REMARK  199  A    between atoms: _465  and  _467
REMARK  200  A    between atoms: _467  and  _468
REMARK  201  A    between atoms: _467  and  _470
REMARK  202  A    between atoms: _473  and  _475
REMARK  203  A    between atoms: _475  and  _476
REMARK  204  A    between atoms: _475  and  _478
REMARK  205  A    between atoms: _478  and  _479
REMARK  206  A    between atoms: _479  and  _480
REMARK  207  A    between atoms: _483  and  _485
REMARK  208  A    between atoms: _485  and  _486
REMARK  209  A    between atoms: _485  and  _488
REMARK  210  A    between atoms: _488  and  _489
REMARK  211  A    between atoms: _489  and  _490
REMARK  212  A    between atoms: _490  and  _491
REMARK  213  A    between atoms: _491  and  _492
REMARK  214  A    between atoms: _496  and  _498
REMARK  215  A    between atoms: _498  and  _499
REMARK  216  A    between atoms: _498  and  _501
REMARK  217  A    between atoms: _501  and  _502
REMARK  218  A    between atoms: _505  and  _507
REMARK  219  A    between atoms: _507  and  _508
REMARK  220  A    between atoms: _510  and  _512
REMARK  221  A    between atoms: _512  and  _513
REMARK  222  A    between atoms: _512  and  _515
REMARK  223  A    between atoms: _515  and  _516
REMARK  224  A    between atoms: _519  and  _521
REMARK  225  A    between atoms: _521  and  _522
REMARK  226  A    between atoms: _521  and  _524
REMARK  227  A    between atoms: _524  and  _525
REMARK  228  A    between atoms: _531  and  _533
REMARK  229  A    between atoms: _533  and  _534
REMARK  230  A    between atoms: _536  and  _538
REMARK  231  A    between atoms: _538  and  _539
REMARK  232  A    between atoms: _538  and  _541
REMARK  233  A    between atoms: _541  and  _542
REMARK                            x       y       z     vdW  Elec       q    Type
REMARK                         _______ _______ _______ _____ _____    ______ ____
ROOT
ATOM      1  CA  ASN A   4      16.821  23.188   6.810  0.00  0.00    +0.158 C 
ENDROOT
BRANCH   1   4
ATOM      2  C   ARG A   3      16.686  25.188   5.315  0.00  0.00    +0.241 C 
ATOM      3  O   ARG A   3      15.878  25.768   6.105  0.00  0.00    -0.273 OA
ATOM      4  N   ASN A   4      17.179  23.956   5.571  0.00  0.00    -0.297 N 
ATOM      5  H   ASN A   4      17.830  23.524   4.885  0.00  0.00    +0.150 HD
BRANCH   2   6
ATOM      6  CA  ARG A   3      17.178  25.900   4.001  0.00  0.00    +0.149 C 
BRANCH   6   9
ATOM      7  C   THR A   2      19.548  25.609   4.268  0.00  0.00    +0.243 C 
ATOM      8  O   THR A   2      19.455  26.248   5.308  0.00  0.00    -0.273 OA
ATOM      9  N   ARG A   3      18.478  25.440   3.489  0.00  0.00    -0.297 N 
ATOM     10  H   ARG A   3      18.560  24.998   2.551  0.00  0.00    +0.150 HD
BRANCH   7  11
ATOM     11  CA  THR A   2      20.926  25.041   3.826  0.00  0.00    +0.176 C 
BRANCH  11  14
ATOM     12  C   ALA A   1      20.293  22.736   3.412  0.00  0.00    +0.238 C 
ATOM     13  O   ALA A   1      19.832  22.646   4.517  0.00  0.00    -0.274 OA
ATOM     14  N   THR A   2      20.791  23.875   2.958  0.00  0.00    -0.295 N 
ATOM     15  H   THR A   2      21.092  23.941   1.965  0.00  0.00    +0.150 HD
BRANCH  12  16
ATOM     16  CA  ALA A   1      20.293  21.500   2.519  0.00  0.00    +0.145 C 
ATOM     17  CB  ALA A   1      19.155  21.558   1.576  0.00  0.00    +0.028 C 
BRANCH  16  18
ATOM     18  N   ALA A   1      20.100  20.423   3.504  0.00  0.00    -0.238 NA
ATOM     19  H   ALA A   1      19.708  20.670   4.435  0.00  0.00    +0.142 HD
ENDBRANCH  16  18
ENDBRANCH  12  16
ENDBRANCH  11  14
BRANCH  11  20
ATOM     20  CB  THR A   2      21.796  26.186   3.177  0.00  0.00    +0.137 C 
ATOM     21  CG2 THR A   2      23.173  25.680   2.748  0.00  0.00    +0.034 C 
BRANCH  20  22
ATOM     22  OG1 THR A   2      21.147  26.715   2.001  0.00  0.00    -0.382 OA
ATOM     23  HG1 THR A   2      21.025  25.990   1.338  0.00  0.00    +0.210 HD
ENDBRANCH  20  22
ENDBRANCH  11  20
ENDBRANCH   7  11
ENDBRANCH   6   9
BRANCH   6  24
ATOM     24  CB  ARG A   3      16.106  25.875   2.910  0.00  0.00    +0.033 C 
BRANCH  24  25
ATOM     25  CG  ARG A   3      15.658  24.468   2.523  0.00  0.00    +0.045 C 
BRANCH  25  26
ATOM     26  CD  ARG A   3      14.454  24.538   1.654  0.00  0.00    +0.174 C 
BRANCH  26  27
ATOM     27  NE  ARG A   3      13.390  23.789   2.304  0.00  0.00    -0.265 N 
ATOM     28  HE  ARG A   3      12.702  24.309   2.886  0.00  0.00    +0.259 HD
ATOM     29  CZ  ARG A   3      13.255  22.471   2.190  0.00  0.00    +0.342 C 
ATOM     30  NH2 ARG A   3      12.279  21.851   2.847  0.00  0.00    -0.292 N 
ATOM     31 HH21 ARG A   3      11.627  22.397   3.446  0.00  0.00    +0.255 HD
ATOM     32 HH22 ARG A   3      12.168  20.820   2.762  0.00  0.00    +0.255 HD
ATOM     33  NH1 ARG A   3      14.118  21.781   1.428  0.00  0.00    -0.292 N 
ATOM     34 HH11 ARG A   3      14.019  20.750   1.334  0.00  0.00    +0.255 HD
ATOM     35 HH12 ARG A   3      14.886  22.277   0.932  0.00  0.00    +0.255 HD
ENDBRANCH  26  27
ENDBRANCH  25  26
ENDBRANCH  24  25
ENDBRANCH   6  24
ENDBRANCH   2   6
ENDBRANCH   1   4
BRANCH   1  36
ATOM     36  C   ASN A   4      17.773  23.381   7.975  0.00  0.00    +0.241 C 
ATOM     37  O   ASN A   4      17.636  22.689   8.989  0.00  0.00    -0.273 OA
ATOM     38  N   ILE A   5      18.751  24.277   7.813  0.00  0.00    -0.297 N 
ATOM     39  H   ILE A   5      18.854  24.741   6.888  0.00  0.00    +0.150 HD
BRANCH  38  40
ATOM     40  CA  ILE A   5      19.678  24.631   8.876  0.00  0.00    +0.149 C 
BRANCH  40  41
ATOM     41  C   ILE A   5      19.349  26.042   9.342  0.00  0.00    +0.241 C 
ATOM     42  N   LEU A   6      19.320  26.241  10.666  0.00  0.00    -0.297 N 
ATOM     43  H   LEU A   6      19.655  25.474  11.283  0.00  0.00    +0.150 HD
ATOM     44  O   ILE A   5      19.188  26.935   8.498  0.00  0.00    -0.273 OA
BRANCH  42  45
ATOM     45  CA  LEU A   6      18.846  27.471  11.294  0.00  0.00    +0.149 C 
BRANCH  45  46
ATOM     46  C   LEU A   6      20.039  28.110  11.945  0.00  0.00    +0.241 C 
ATOM     47  O   LEU A   6      20.940  27.415  12.384  0.00  0.00    -0.273 OA
ATOM     48  N   VAL A   7      19.995  29.440  12.040  0.00  0.00    -0.297 N 
ATOM     49  H   VAL A   7      19.161  29.925  11.652  0.00  0.00    +0.150 HD
BRANCH  48  50
ATOM     50  CA  VAL A   7      21.020  30.251  12.641  0.00  0.00    +0.149 C 
BRANCH  50  51
ATOM     51  C   VAL A   7      20.489  30.866  13.949  0.00  0.00    +0.241 C 
ATOM     52  N   GLU A   8      21.049  30.437  15.080  0.00  0.00    -0.298 N 
ATOM     53  H   GLU A   8      21.803  29.723  15.033  0.00  0.00    +0.150 HD
ATOM     54  O   VAL A   7      19.583  31.686  13.924  0.00  0.00    -0.273 OA
BRANCH  52  55
ATOM     55  CA  GLU A   8      20.628  30.947  16.391  0.00  0.00    +0.137 C 
BRANCH  55  56
ATOM     56  C   GLU A   8      21.292  32.300  16.626  0.00  0.00    +0.227 C 
ATOM     57  O   GLU A   8      20.713  33.169  17.248  0.00  0.00    -0.286 OA
ENDBRANCH  55  56
BRANCH  55  58
ATOM     58  CB  GLU A   8      21.026  29.992  17.509  0.00  0.00    +0.039 C 
BRANCH  58  59
ATOM     59  CG  GLU A   8      20.535  30.445  18.900  0.00  0.00    +0.116 C 
BRANCH  59  60
ATOM     60  CD  GLU A   8      21.344  29.877  20.030  0.00  0.00    +0.365 C 
ATOM     61  OE2 GLU A   8      21.236  30.401  21.154  0.00  0.00    -0.246 OA
ATOM     62  OE1 GLU A   8      22.133  28.936  19.807  0.00  0.00    -0.246 OA
ENDBRANCH  59  60
ENDBRANCH  58  59
ENDBRANCH  55  58
ENDBRANCH  52  55
ENDBRANCH  50  51
BRANCH  50  63
ATOM     63  CB  VAL A   7      21.525  31.333  11.621  0.00  0.00    +0.027 C 
ATOM     64  CG2 VAL A   7      22.561  32.269  12.275  0.00  0.00    +0.002 C 
ATOM     65  CG1 VAL A   7      22.141  30.645  10.343  0.00  0.00    +0.002 C 
ENDBRANCH  50  63
ENDBRANCH  48  50
ENDBRANCH  45  46
BRANCH  45  66
ATOM     66  CB  LEU A   6      17.846  27.156  12.439  0.00  0.00    +0.029 C 
BRANCH  66  67
ATOM     67  CG  LEU A   6      16.657  26.290  12.044  0.00  0.00    +0.002 C 
ATOM     68  CD2 LEU A   6      15.783  26.146  13.299  0.00  0.00    +0.000 C 
ATOM     69  CD1 LEU A   6      15.898  26.953  10.927  0.00  0.00    +0.000 C 
ENDBRANCH  66  67
ENDBRANCH  45  66
ENDBRANCH  42  45
ENDBRANCH  40  41
BRANCH  40  70
ATOM     70  CB  ILE A   5      21.140  24.701   8.422  0.00  0.00    +0.027 C 
ATOM     71  CG2 ILE A   5      22.002  24.838   9.671  0.00  0.00    +0.002 C 
BRANCH  70  72
ATOM     72  CG1 ILE A   5      21.555  23.453   7.616  0.00  0.00    +0.002 C 
ATOM     73  CD1 ILE A   5      21.212  22.179   8.311  0.00  0.00    +0.000 C 
ENDBRANCH  70  72
ENDBRANCH  40  70
ENDBRANCH  38  40
ENDBRANCH   1  36
BRANCH   1  74
ATOM     74  CB  ASN A   4      16.685  21.674   6.539  0.00  0.00    +0.114 C 
BRANCH  74  75
ATOM     75  CG  ASN A   4      15.476  21.340   5.635  0.00  0.00    +0.222 C 
ATOM     76  OD1 ASN A   4      14.367  21.836   5.859  0.00  0.00    -0.275 OA
ATOM     77  ND2 ASN A   4      15.700  20.514   4.603  0.00  0.00    -0.329 N 
ATOM     78 HD21 ASN A   4      16.650  20.118   4.450  0.00  0.00    +0.145 HD
ATOM     79 HD22 ASN A   4      14.924  20.269   3.955  0.00  0.00    +0.145 HD
ENDBRANCH  74  75
ENDBRANCH   1  74
TORSDOF 32
REMARK  Name = ../refined-set-2016/4e6q/4e6q_pocket.pdb
REMARK  233 active torsions:
REMARK  status: ('A' for Active; 'I' for Inactive)
REMARK    1  A    between atoms: _1  and  _3
REMARK    2  A    between atoms: _3  and  _4
REMARK    3  A    between atoms: _3  and  _6
REMARK    4  A    between atoms: _6  and  _7
REMARK    5  A    between atoms: _7  and  _8
REMARK    6  A    between atoms: _8  and  _9
REMARK    7  A    between atoms: _18  and  _20
REMARK    8  A    between atoms: _20  and  _21
REMARK    9  A    between atoms: _20  and  _23
REMARK   10  A    between atoms: _23  and  _24
REMARK   11  A    between atoms: _24  and  _25
REMARK   12  A    between atoms: _30  and  _32
REMARK   13  A    between atoms: _32  and  _33
REMARK   14  A    between atoms: _32  and  _35
REMARK   15  A    between atoms: _35  and  _36
REMARK   16  A    between atoms: _39  and  _41
REMARK   17  A    between atoms: _41  and  _42
REMARK   18  A    between atoms: _44  and  _46
REMARK   19  A    between atoms: _46  and  _47
REMARK   20  A    between atoms: _46  and  _49
REMARK   21  A    between atoms: _49  and  _50
REMARK   22  A    between atoms: _50  and  _51
REMARK   23  A    between atoms: _51  and  _52
REMARK   24  A    between atoms: _52  and  _53
REMARK   25  A    between atoms: _57  and  _59
REMARK   26  A    between atoms: _59  and  _60
REMARK   27  A    between atoms: _62  and  _64
REMARK   28  A    between atoms: _64  and  _65
REMARK   29  A    between atoms: _64  and  _67
REMARK   30  A    between atoms: _67  and  _68
REMARK   31  A    between atoms: _73  and  _75
REMARK   32  A    between atoms: _75  and  _76
REMARK   33  A    between atoms: _75  and  _78
REMARK   34  A    between atoms: _78  and  _79
REMARK   35  A    between atoms: _85  and  _87
REMARK   36  A    between atoms: _87  and  _88
REMARK   37  A    between atoms: _90  and  _92
REMARK   38  A    between atoms: _92  and  _93
REMARK   39  A    between atoms: _92  and  _95
REMARK   40  A    between atoms: _95  and  _96
REMARK   41  A    between atoms: _98  and  _100
REMARK   42  A    between atoms: _100  and  _101
REMARK   43  A    between atoms: _100  and  _103
REMARK   44  A    between atoms: _106  and  _108
REMARK   45  A    between atoms: _108  and  _109
REMARK   46  A    between atoms: _108  and  _111
REMARK   47  A    between atoms: _111  and  _112
REMARK   48  A    between atoms: _112  and  _113
REMARK   49  A    between atoms: _116  and  _118
REMARK   50  A    between atoms: _118  and  _119
REMARK   51  A    between atoms: _118  and  _121
REMARK   52  A    between atoms: _121  and  _122
REMARK   53  A    between atoms: _122  and  _123
REMARK   54  A    between atoms: _125  and  _127
REMARK   55  A    between atoms: _127  and  _128
REMARK   56  A    between atoms: _127  and  _130
REMARK   57  A    between atoms: _133  and  _135
REMARK   58  A    between atoms: _135  and  _136
REMARK   59  A    between atoms: _135  and  _138
REMARK   60  A    between atoms: _141  and  _143
REMARK   61  A    between atoms: _143  and  _144
REMARK   62  A    between atoms: _147  and  _149
REMARK   63  A    between atoms: _149  and  _150
REMARK   64  A    between atoms: _149  and  _152
REMARK   65  A    between atoms: _155  and  _157
REMARK   66  A    between atoms: _157  and  _158
REMARK   67  A    between atoms: _157  and  _160
REMARK   68  A    between atoms: _160  and  _161
REMARK   69  A    between atoms: _161  and  _162
REMARK   70  A    between atoms: _162  and  _163
REMARK   71  A    between atoms: _163  and  _164
REMARK   72  A    between atoms: _168  and  _170
REMARK   73  A    between atoms: _170  and  _171
REMARK   74  A    between atoms: _170  and  _173
REMARK   75  A    between atoms: _173  and  _174
REMARK   76  A    between atoms: _174  and  _175
REMARK   77  A    between atoms: _175  and  _176
REMARK   78  A    between atoms: _176  and  _177
REMARK   79  A    between atoms: _181  and  _183
REMARK   80  A    between atoms: _183  and  _184
REMARK   81  A    between atoms: _183  and  _186
REMARK   82  A    between atoms: _186  and  _187
REMARK   83  A    between atoms: _190  and  _192
REMARK   84  A    between atoms: _192  and  _193
REMARK   85  A    between atoms: _192  and  _195
REMARK   86  A    between atoms: _195  and  _196
REMARK   87  A    between atoms: _196  and  _197
REMARK   88  A    between atoms: _202  and  _204
REMARK   89  A    between atoms: _204  and  _205
REMARK   90  A    between atoms: _204  and  _207
REMARK   91  A    between atoms: _207  and  _208
REMARK   92  A    between atoms: _214  and  _216
REMARK   93  A    between atoms: _216  and  _217
REMARK   94  A    between atoms: _216  and  _219
REMARK   95  A    between atoms: _219  and  _220
REMARK   96  A    between atoms: _220  and  _221
REMARK   97  A    between atoms: _224  and  _226
REMARK   98  A    between atoms: _226  and  _227
REMARK   99  A    between atoms: _226  and  _229
REMARK  100  A    between atoms: _229  and  _230
REMARK  101  A    between atoms: _233  and  _235
REMARK  102  A    between atoms: _235  and  _236
REMARK  103  A    between atoms: _235  and  _238
REMARK  104  A    between atoms: _241  and  _243
REMARK  105  A    between atoms: _243  and  _244
REMARK  106  A    between atoms: _243  and  _246
REMARK  107  A    between atoms: _246  and  _247
REMARK  108  A    between atoms: _247  and  _248
REMARK  109  A    between atoms: _248  and  _249
REMARK  110  A    between atoms: _249  and  _250
REMARK  111  A    between atoms: _254  and  _256
REMARK  112  A    between atoms: _256  and  _257
REMARK  113  A    between atoms: _256  and  _259
REMARK  114  A    between atoms: _259  and  _260
REMARK  115  A    between atoms: _260  and  _261
REMARK  116  A    between atoms: _261  and  _262
REMARK  117  A    between atoms: _262  and  _263
REMARK  118  A    between atoms: _267  and  _269
REMARK  119  A    between atoms: _269  and  _270
REMARK  120  A    between atoms: _269  and  _272
REMARK  121  A    between atoms: _272  and  _273
REMARK  122  A    between atoms: _276  and  _278
REMARK  123  A    between atoms: _278  and  _279
REMARK  124  A    between atoms: _278  and  _281
REMARK  125  A    between atoms: _281  and  _282
REMARK  126  A    between atoms: _285  and  _287
REMARK  127  A    between atoms: _287  and  _288
REMARK  128  A    between atoms: _287  and  _290
REMARK  129  A    between atoms: _290  and  _291
REMARK  130  A    between atoms: _291  and  _292
REMARK  131  A    between atoms: _294  and  _296
REMARK  132  A    between atoms: _296  and  _297
REMARK  133  A    between atoms: _296  and  _299
REMARK  134  A    between atoms: _299  and  _300
REMARK  135  A    between atoms: _300  and  _301
REMARK  136  A    between atoms: _304  and  _306
REMARK  137  A    between atoms: _306  and  _307
REMARK  138  A    between atoms: _306  and  _309
REMARK  139  A    between atoms: _309  and  _310
REMARK  140  A    between atoms: _316  and  _318
REMARK  141  A    between atoms: _318  and  _319
REMARK  142  A    between atoms: _318  and  _321
REMARK  143  A    between atoms: _321  and  _322
REMARK  144  A    between atoms: _326  and  _327
REMARK  145  A    between atoms: _332  and  _334
REMARK  146  A    between atoms: _334  and  _335
REMARK  147  A    between atoms: _334  and  _337
REMARK  148  A    between atoms: _337  and  _338
REMARK  149  A    between atoms: _343  and  _344
REMARK  150  A    between atoms: _346  and  _348
REMARK  151  A    between atoms: _348  and  _349
REMARK  152  A    between atoms: _351  and  _353
REMARK  153  A    between atoms: _353  and  _354
REMARK  154  A    between atoms: _353  and  _356
REMARK  155  A    between atoms: _356  and  _357
REMARK  156  A    between atoms: _359  and  _361
REMARK  157  A    between atoms: _361  and  _362
REMARK  158  A    between atoms: _361  and  _364
REMARK  159  A    between atoms: _364  and  _365
REMARK  160  A    between atoms: _368  and  _370
REMARK  161  A    between atoms: _370  and  _371
REMARK  162  A    between atoms: _370  and  _373
REMARK  163  A    between atoms: _373  and  _374
REMARK  164  A    between atoms: _374  and  _375
REMARK  165  A    between atoms: _375  and  _376
REMARK  166  A    between atoms: _385  and  _387
REMARK  167  A    between atoms: _387  and  _388
REMARK  168  A    between atoms: _387  and  _390
REMARK  169  A    between atoms: _390  and  _391
REMARK  170  A    between atoms: _391  and  _392
REMARK  171  A    between atoms: _395  and  _397
REMARK  172  A    between atoms: _397  and  _398
REMARK  173  A    between atoms: _397  and  _400
REMARK  174  A    between atoms: _400  and  _401
REMARK  175  A    between atoms: _404  and  _406
REMARK  176  A    between atoms: _406  and  _407
REMARK  177  A    between atoms: _410  and  _412
REMARK  178  A    between atoms: _412  and  _413
REMARK  179  A    between atoms: _412  and  _415
REMARK  180  A    between atoms: _415  and  _416
REMARK  181  A    between atoms: _419  and  _421
REMARK  182  A    between atoms: _421  and  _422
REMARK  183  A    between atoms: _421  and  _424
REMARK  184  A    between atoms: _424  and  _425
REMARK  185  A    between atoms: _425  and  _426
REMARK  186  A    between atoms: _426  and  _427
REMARK  187  A    between atoms: _436  and  _438
REMARK  188  A    between atoms: _438  and  _439
REMARK  189  A    between atoms: _438  and  _441
REMARK  190  A    between atoms: _441  and  _442
REMARK  191  A    between atoms: _447  and  _449
REMARK  192  A    between atoms: _449  and  _450
REMARK  193  A    between atoms: _449  and  _452
REMARK  194  A    between atoms: _452  and  _453
REMARK  195  A    between atoms: _456  and  _458
REMARK  196  A    between atoms: _458  and  _459
REMARK  197  A    between atoms: _458  and  _461
REMARK  198  A    between atoms: _461  and  _462
REMARK  199  A    between atoms: _465  and  _467
REMARK  200  A    between atoms: _467  and  _468
REMARK  201  A    between atoms: _467  and  _470
REMARK  202  A    between atoms: _473  and  _475
REMARK  203  A    between atoms: _475  and  _476
REMARK  204  A    between atoms: _475  and  _478
REMARK  205  A    between atoms: _478  and  _479
REMARK  206  A    between atoms: _479  and  _480
REMARK  207  A    between atoms: _483  and  _485
REMARK  208  A    between atoms: _485  and  _486
REMARK  209  A    between atoms: _485  and  _488
REMARK  210  A    between atoms: _488  and  _489
REMARK  211  A    between atoms: _489  and  _490
REMARK  212  A    between atoms: _490  and  _491
REMARK  213  A    between atoms: _491  and  _492
REMARK  214  A    between atoms: _496  and  _498
REMARK  215  A    between atoms: _498  and  _499
REMARK  216  A    between atoms: _498  and  _501
REMARK  217  A    between atoms: _501  and  _502
REMARK  218  A    between atoms: _505  and  _507
REMARK  219  A    between atoms: _507  and  _508
REMARK  220  A    between atoms: _510  and  _512
REMARK  221  A    between atoms: _512  and  _513
REMARK  222  A    between atoms: _512  and  _515
REMARK  223  A    between atoms: _515  and  _516
REMARK  224  A    between atoms: _519  and  _521
REMARK  225  A    between atoms: _521  and  _522
REMARK  226  A    between atoms: _521  and  _524
REMARK  227  A    between atoms: _524  and  _525
REMARK  228  A    between atoms: _531  and  _533
REMARK  229  A    between atoms: _533  and  _534
REMARK  230  A    between atoms: _536  and  _538
REMARK  231  A    between atoms: _538  and  _539
REMARK  232  A    between atoms: _538  and  _541
REMARK  233  A    between atoms: _541  and  _542
REMARK                            x       y       z     vdW  Elec       q    Type
REMARK                         _______ _______ _______ _____ _____    ______ ____
ROOT
ATOM      1  CA  ASP A   4      13.809  20.026  10.468  0.00  0.00    +0.160 C 
ENDROOT
BRANCH   1   2
ATOM      2  C   ASP A   4      14.168  18.535  10.462  0.00  0.00    +0.241 C 
ATOM      3  N   PHE A   5      13.183  17.717  10.810  0.00  0.00    -0.297 N 
ATOM      4  H   PHE A   5      12.258  18.138  11.031  0.00  0.00    +0.150 HD
ATOM      5  O   ASP A   4      15.309  18.159  10.176  0.00  0.00    -0.273 OA
BRANCH   3   6
ATOM      6  CA  PHE A   5      13.308  16.290  10.902  0.00  0.00    +0.153 C 
BRANCH   6   7
ATOM      7  C   PHE A   5      12.110  15.557  10.306  0.00  0.00    +0.241 C 
ATOM      8  O   PHE A   5      11.840  14.402  10.675  0.00  0.00    -0.273 OA
ATOM      9  N   GLY A   6      11.376  16.228   9.414  0.00  0.00    -0.295 N 
ATOM     10  H   GLY A   6      11.682  17.173   9.104  0.00  0.00    +0.150 HD
BRANCH   9  11
ATOM     11  CA  GLY A   6      10.148  15.652   8.867  0.00  0.00    +0.176 C 
BRANCH  11  12
ATOM     12  C   GLY A   6      10.294  14.386   8.013  0.00  0.00    +0.243 C 
ATOM     13  O   GLY A   6       9.301  13.670   7.793  0.00  0.00    -0.273 OA
ATOM     14  N   LEU A   7      11.513  14.128   7.500  0.00  0.00    -0.298 N 
ATOM     15  H   LEU A   7      12.272  14.823   7.651  0.00  0.00    +0.150 HD
BRANCH  14  16
ATOM     16  CA  LEU A   7      11.818  12.922   6.744  0.00  0.00    +0.137 C 
BRANCH  16  17
ATOM     17  C   LEU A   7      12.707  11.899   7.466  0.00  0.00    +0.227 C 
ATOM     18  O   LEU A   7      13.113  10.911   6.854  0.00  0.00    -0.286 OA
ENDBRANCH  16  17
BRANCH  16  19
ATOM     19  CB  LEU A   7      12.525  13.301   5.446  0.00  0.00    +0.028 C 
BRANCH  19  20
ATOM     20  CG  LEU A   7      11.684  14.067   4.425  0.00  0.00    +0.002 C 
ATOM     21  CD2 LEU A   7      10.493  13.235   4.045  0.00  0.00    +0.000 C 
ATOM     22  CD1 LEU A   7      12.585  14.238   3.185  0.00  0.00    +0.000 C 
ENDBRANCH  19  20
ENDBRANCH  16  19
ENDBRANCH  14  16
ENDBRANCH  11  12
ENDBRANCH   9  11
ENDBRANCH   6   7
BRANCH   6  23
ATOM     23  CB  PHE A   5      13.508  15.928  12.383  0.00  0.00    +0.055 C 
BRANCH  23  24
ATOM     24  CG  PHE A   5      14.793  16.501  12.942  0.00  0.00    -0.020 A 
ATOM     25  CD2 PHE A   5      14.807  17.758  13.544  0.00  0.00    -0.004 A 
ATOM     26  CE2 PHE A   5      15.979  18.313  13.990  0.00  0.00    -0.000 A 
ATOM     27  CZ  PHE A   5      17.185  17.612  13.849  0.00  0.00    -0.000 A 
ATOM     28  CE1 PHE A   5      17.196  16.352  13.256  0.00  0.00    -0.000 A 
ATOM     29  CD1 PHE A   5      15.988  15.816  12.785  0.00  0.00    -0.004 A 
ENDBRANCH  23  24
ENDBRANCH   6  23
ENDBRANCH   3   6
ENDBRANCH   1   2
BRANCH   1  32
ATOM     30  C   GLY A   3      14.811  21.909  11.683  0.00  0.00    +0.243 C 
ATOM     31  O   GLY A   3      13.723  22.471  11.873  0.00  0.00    -0.273 OA
ATOM     32  N   ASP A   4      14.946  20.822  10.919  0.00  0.00    -0.296 N 
ATOM     33  H   ASP A   4      15.902  20.530  10.633  0.00  0.00    +0.150 HD
BRANCH  30  34
ATOM     34  CA  GLY A   3      16.089  22.452  12.313  0.00  0.00    +0.176 C 
BRANCH  34  37
ATOM     35  C   ILE A   2      18.352  21.503  12.674  0.00  0.00    +0.241 C 
ATOM     36  O   ILE A   2      18.100  21.119  13.802  0.00  0.00    -0.273 OA
ATOM     37  N   GLY A   3      17.409  21.995  11.852  0.00  0.00    -0.295 N 
ATOM     38  H   GLY A   3      17.624  22.056  10.836  0.00  0.00    +0.150 HD
BRANCH  35  39
ATOM     39  CA  ILE A   2      19.795  21.388  12.140  0.00  0.00    +0.148 C 
BRANCH  39  41
ATOM     40  C   LYS A   1      20.636  23.495  13.052  0.00  0.00    +0.238 C 
ATOM     41  N   ILE A   2      20.705  22.175  12.967  0.00  0.00    -0.297 N 
ATOM     42  H   ILE A   2      21.438  21.678  13.512  0.00  0.00    +0.150 HD
ATOM     43  O   LYS A   1      20.042  24.222  12.221  0.00  0.00    -0.274 OA
BRANCH  40  44
ATOM     44  CA  LYS A   1      21.360  24.079  14.240  0.00  0.00    +0.145 C 
BRANCH  44  45
ATOM     45  N   LYS A   1      21.951  25.342  13.817  0.00  0.00    -0.238 NA
ATOM     46  H   LYS A   1      21.398  25.988  13.218  0.00  0.00    +0.142 HD
ENDBRANCH  44  45
BRANCH  44  47
ATOM     47  CB  LYS A   1      20.335  24.271  15.409  0.00  0.00    +0.026 C 
BRANCH  47  48
ATOM     48  CG  LYS A   1      20.826  25.123  16.561  0.00  0.00    -0.000 C 
BRANCH  48  49
ATOM     49  CD  LYS A   1      19.866  25.115  17.742  0.00  0.00    -0.024 C 
BRANCH  49  50
ATOM     50  CE  LYS A   1      20.546  25.631  19.021  0.00  0.00    -0.086 C 
BRANCH  50  51
ATOM     51  NZ  LYS A   1      19.591  25.612  20.228  0.00  0.00    +0.380 N 
ATOM     52  HZ1 LYS A   1      20.090  25.968  21.069  0.00  0.00    -0.089 HD
ATOM     53  HZ2 LYS A   1      19.271  24.638  20.400  0.00  0.00    -0.089 HD
ATOM     54  HZ3 LYS A   1      18.770  26.218  20.028  0.00  0.00    -0.089 HD
ENDBRANCH  50  51
ENDBRANCH  49  50
ENDBRANCH  48  49
ENDBRANCH  47  48
ENDBRANCH  44  47
ENDBRANCH  40  44
ENDBRANCH  39  41
BRANCH  39  55
ATOM     55  CB  ILE A   2      20.251  19.916  12.164  0.00  0.00    +0.027 C 
ATOM     56  CG2 ILE A   2      19.286  19.006  11.404  0.00  0.00    +0.002 C 
BRANCH  55  57
ATOM     57  CG1 ILE A   2      21.687  19.816  11.601  0.00  0.00    +0.002 C 
ATOM     58  CD1 ILE A   2      22.230  18.448  11.768  0.00  0.00    +0.000 C 
ENDBRANCH  55  57
ENDBRANCH  39  55
ENDBRANCH  35  39
ENDBRANCH  34  37
ENDBRANCH  30  34
ENDBRANCH   1  32
BRANCH   1  59
ATOM     59  CB  ASP A   4      13.330  20.427   9.075  0.00  0.00    +0.143 C 
BRANCH  59  60
ATOM     60  CG  ASP A   4      11.903  19.973   8.810  0.00  0.00    +0.367 C 
ATOM     61  OD2 ASP A   4      10.978  20.618   9.380  0.00  0.00    -0.246 OA
ATOM     62  OD1 ASP A   4      11.699  18.960   8.068  0.00  0.00    -0.246 OA
ENDBRANCH  59  60
ENDBRANCH   1  59
TORSDOF 27
REMARK  Name = ../refined-set-2016/4e6q/4e6q_pocket.pdb
REMARK  233 active torsions:
REMARK  status: ('A' for Active; 'I' for Inactive)
REMARK    1  A    between atoms: _1  and  _3
REMARK    2  A    between atoms: _3  and  _4
REMARK    3  A    between atoms: _3  and  _6
REMARK    4  A    between atoms: _6  and  _7
REMARK    5  A    between atoms: _7  and  _8
REMARK    6  A    between atoms: _8  and  _9
REMARK    7  A    between atoms: _18  and  _20
REMARK    8  A    between atoms: _20  and  _21
REMARK    9  A    between atoms: _20  and  _23
REMARK   10  A    between atoms: _23  and  _24
REMARK   11  A    between atoms: _24  and  _25
REMARK   12  A    between atoms: _30  and  _32
REMARK   13  A    between atoms: _32  and  _33
REMARK   14  A    between atoms: _32  and  _35
REMARK   15  A    between atoms: _35  and  _36
REMARK   16  A    between atoms: _39  and  _41
REMARK   17  A    between atoms: _41  and  _42
REMARK   18  A    between atoms: _44  and  _46
REMARK   19  A    between atoms: _46  and  _47
REMARK   20  A    between atoms: _46  and  _49
REMARK   21  A    between atoms: _49  and  _50
REMARK   22  A    between atoms: _50  and  _51
REMARK   23  A    between atoms: _51  and  _52
REMARK   24  A    between atoms: _52  and  _53
REMARK   25  A    between atoms: _57  and  _59
REMARK   26  A    between atoms: _59  and  _60
REMARK   27  A    between atoms: _62  and  _64
REMARK   28  A    between atoms: _64  and  _65
REMARK   29  A    between atoms: _64  and  _67
REMARK   30  A    between atoms: _67  and  _68
REMARK   31  A    between atoms: _73  and  _75
REMARK   32  A    between atoms: _75  and  _76
REMARK   33  A    between atoms: _75  and  _78
REMARK   34  A    between atoms: _78  and  _79
REMARK   35  A    between atoms: _85  and  _87
REMARK   36  A    between atoms: _87  and  _88
REMARK   37  A    between atoms: _90  and  _92
REMARK   38  A    between atoms: _92  and  _93
REMARK   39  A    between atoms: _92  and  _95
REMARK   40  A    between atoms: _95  and  _96
REMARK   41  A    between atoms: _98  and  _100
REMARK   42  A    between atoms: _100  and  _101
REMARK   43  A    between atoms: _100  and  _103
REMARK   44  A    between atoms: _106  and  _108
REMARK   45  A    between atoms: _108  and  _109
REMARK   46  A    between atoms: _108  and  _111
REMARK   47  A    between atoms: _111  and  _112
REMARK   48  A    between atoms: _112  and  _113
REMARK   49  A    between atoms: _116  and  _118
REMARK   50  A    between atoms: _118  and  _119
REMARK   51  A    between atoms: _118  and  _121
REMARK   52  A    between atoms: _121  and  _122
REMARK   53  A    between atoms: _122  and  _123
REMARK   54  A    between atoms: _125  and  _127
REMARK   55  A    between atoms: _127  and  _128
REMARK   56  A    between atoms: _127  and  _130
REMARK   57  A    between atoms: _133  and  _135
REMARK   58  A    between atoms: _135  and  _136
REMARK   59  A    between atoms: _135  and  _138
REMARK   60  A    between atoms: _141  and  _143
REMARK   61  A    between atoms: _143  and  _144
REMARK   62  A    between atoms: _147  and  _149
REMARK   63  A    between atoms: _149  and  _150
REMARK   64  A    between atoms: _149  and  _152
REMARK   65  A    between atoms: _155  and  _157
REMARK   66  A    between atoms: _157  and  _158
REMARK   67  A    between atoms: _157  and  _160
REMARK   68  A    between atoms: _160  and  _161
REMARK   69  A    between atoms: _161  and  _162
REMARK   70  A    between atoms: _162  and  _163
REMARK   71  A    between atoms: _163  and  _164
REMARK   72  A    between atoms: _168  and  _170
REMARK   73  A    between atoms: _170  and  _171
REMARK   74  A    between atoms: _170  and  _173
REMARK   75  A    between atoms: _173  and  _174
REMARK   76  A    between atoms: _174  and  _175
REMARK   77  A    between atoms: _175  and  _176
REMARK   78  A    between atoms: _176  and  _177
REMARK   79  A    between atoms: _181  and  _183
REMARK   80  A    between atoms: _183  and  _184
REMARK   81  A    between atoms: _183  and  _186
REMARK   82  A    between atoms: _186  and  _187
REMARK   83  A    between atoms: _190  and  _192
REMARK   84  A    between atoms: _192  and  _193
REMARK   85  A    between atoms: _192  and  _195
REMARK   86  A    between atoms: _195  and  _196
REMARK   87  A    between atoms: _196  and  _197
REMARK   88  A    between atoms: _202  and  _204
REMARK   89  A    between atoms: _204  and  _205
REMARK   90  A    between atoms: _204  and  _207
REMARK   91  A    between atoms: _207  and  _208
REMARK   92  A    between atoms: _214  and  _216
REMARK   93  A    between atoms: _216  and  _217
REMARK   94  A    between atoms: _216  and  _219
REMARK   95  A    between atoms: _219  and  _220
REMARK   96  A    between atoms: _220  and  _221
REMARK   97  A    between atoms: _224  and  _226
REMARK   98  A    between atoms: _226  and  _227
REMARK   99  A    between atoms: _226  and  _229
REMARK  100  A    between atoms: _229  and  _230
REMARK  101  A    between atoms: _233  and  _235
REMARK  102  A    between atoms: _235  and  _236
REMARK  103  A    between atoms: _235  and  _238
REMARK  104  A    between atoms: _241  and  _243
REMARK  105  A    between atoms: _243  and  _244
REMARK  106  A    between atoms: _243  and  _246
REMARK  107  A    between atoms: _246  and  _247
REMARK  108  A    between atoms: _247  and  _248
REMARK  109  A    between atoms: _248  and  _249
REMARK  110  A    between atoms: _249  and  _250
REMARK  111  A    between atoms: _254  and  _256
REMARK  112  A    between atoms: _256  and  _257
REMARK  113  A    between atoms: _256  and  _259
REMARK  114  A    between atoms: _259  and  _260
REMARK  115  A    between atoms: _260  and  _261
REMARK  116  A    between atoms: _261  and  _262
REMARK  117  A    between atoms: _262  and  _263
REMARK  118  A    between atoms: _267  and  _269
REMARK  119  A    between atoms: _269  and  _270
REMARK  120  A    between atoms: _269  and  _272
REMARK  121  A    between atoms: _272  and  _273
REMARK  122  A    between atoms: _276  and  _278
REMARK  123  A    between atoms: _278  and  _279
REMARK  124  A    between atoms: _278  and  _281
REMARK  125  A    between atoms: _281  and  _282
REMARK  126  A    between atoms: _285  and  _287
REMARK  127  A    between atoms: _287  and  _288
REMARK  128  A    between atoms: _287  and  _290
REMARK  129  A    between atoms: _290  and  _291
REMARK  130  A    between atoms: _291  and  _292
REMARK  131  A    between atoms: _294  and  _296
REMARK  132  A    between atoms: _296  and  _297
REMARK  133  A    between atoms: _296  and  _299
REMARK  134  A    between atoms: _299  and  _300
REMARK  135  A    between atoms: _300  and  _301
REMARK  136  A    between atoms: _304  and  _306
REMARK  137  A    between atoms: _306  and  _307
REMARK  138  A    between atoms: _306  and  _309
REMARK  139  A    between atoms: _309  and  _310
REMARK  140  A    between atoms: _316  and  _318
REMARK  141  A    between atoms: _318  and  _319
REMARK  142  A    between atoms: _318  and  _321
REMARK  143  A    between atoms: _321  and  _322
REMARK  144  A    between atoms: _326  and  _327
REMARK  145  A    between atoms: _332  and  _334
REMARK  146  A    between atoms: _334  and  _335
REMARK  147  A    between atoms: _334  and  _337
REMARK  148  A    between atoms: _337  and  _338
REMARK  149  A    between atoms: _343  and  _344
REMARK  150  A    between atoms: _346  and  _348
REMARK  151  A    between atoms: _348  and  _349
REMARK  152  A    between atoms: _351  and  _353
REMARK  153  A    between atoms: _353  and  _354
REMARK  154  A    between atoms: _353  and  _356
REMARK  155  A    between atoms: _356  and  _357
REMARK  156  A    between atoms: _359  and  _361
REMARK  157  A    between atoms: _361  and  _362
REMARK  158  A    between atoms: _361  and  _364
REMARK  159  A    between atoms: _364  and  _365
REMARK  160  A    between atoms: _368  and  _370
REMARK  161  A    between atoms: _370  and  _371
REMARK  162  A    between atoms: _370  and  _373
REMARK  163  A    between atoms: _373  and  _374
REMARK  164  A    between atoms: _374  and  _375
REMARK  165  A    between atoms: _375  and  _376
REMARK  166  A    between atoms: _385  and  _387
REMARK  167  A    between atoms: _387  and  _388
REMARK  168  A    between atoms: _387  and  _390
REMARK  169  A    between atoms: _390  and  _391
REMARK  170  A    between atoms: _391  and  _392
REMARK  171  A    between atoms: _395  and  _397
REMARK  172  A    between atoms: _397  and  _398
REMARK  173  A    between atoms: _397  and  _400
REMARK  174  A    between atoms: _400  and  _401
REMARK  175  A    between atoms: _404  and  _406
REMARK  176  A    between atoms: _406  and  _407
REMARK  177  A    between atoms: _410  and  _412
REMARK  178  A    between atoms: _412  and  _413
REMARK  179  A    between atoms: _412  and  _415
REMARK  180  A    between atoms: _415  and  _416
REMARK  181  A    between atoms: _419  and  _421
REMARK  182  A    between atoms: _421  and  _422
REMARK  183  A    between atoms: _421  and  _424
REMARK  184  A    between atoms: _424  and  _425
REMARK  185  A    between atoms: _425  and  _426
REMARK  186  A    between atoms: _426  and  _427
REMARK  187  A    between atoms: _436  and  _438
REMARK  188  A    between atoms: _438  and  _439
REMARK  189  A    between atoms: _438  and  _441
REMARK  190  A    between atoms: _441  and  _442
REMARK  191  A    between atoms: _447  and  _449
REMARK  192  A    between atoms: _449  and  _450
REMARK  193  A    between atoms: _449  and  _452
REMARK  194  A    between atoms: _452  and  _453
REMARK  195  A    between atoms: _456  and  _458
REMARK  196  A    between atoms: _458  and  _459
REMARK  197  A    between atoms: _458  and  _461
REMARK  198  A    between atoms: _461  and  _462
REMARK  199  A    between atoms: _465  and  _467
REMARK  200  A    between atoms: _467  and  _468
REMARK  201  A    between atoms: _467  and  _470
REMARK  202  A    between atoms: _473  and  _475
REMARK  203  A    between atoms: _475  and  _476
REMARK  204  A    between atoms: _475  and  _478
REMARK  205  A    between atoms: _478  and  _479
REMARK  206  A    between atoms: _479  and  _480
REMARK  207  A    between atoms: _483  and  _485
REMARK  208  A    between atoms: _485  and  _486
REMARK  209  A    between atoms: _485  and  _488
REMARK  210  A    between atoms: _488  and  _489
REMARK  211  A    between atoms: _489  and  _490
REMARK  212  A    between atoms: _490  and  _491
REMARK  213  A    between atoms: _491  and  _492
REMARK  214  A    between atoms: _496  and  _498
REMARK  215  A    between atoms: _498  and  _499
REMARK  216  A    between atoms: _498  and  _501
REMARK  217  A    between atoms: _501  and  _502
REMARK  218  A    between atoms: _505  and  _507
REMARK  219  A    between atoms: _507  and  _508
REMARK  220  A    between atoms: _510  and  _512
REMARK  221  A    between atoms: _512  and  _513
REMARK  222  A    between atoms: _512  and  _515
REMARK  223  A    between atoms: _515  and  _516
REMARK  224  A    between atoms: _519  and  _521
REMARK  225  A    between atoms: _521  and  _522
REMARK  226  A    between atoms: _521  and  _524
REMARK  227  A    between atoms: _524  and  _525
REMARK  228  A    between atoms: _531  and  _533
REMARK  229  A    between atoms: _533  and  _534
REMARK  230  A    between atoms: _536  and  _538
REMARK  231  A    between atoms: _538  and  _539
REMARK  232  A    between atoms: _538  and  _541
REMARK  233  A    between atoms: _541  and  _542
REMARK                            x       y       z     vdW  Elec       q    Type
REMARK                         _______ _______ _______ _____ _____    ______ ____
ROOT
ATOM      1  O   HOH     1      11.130  19.194  13.321  0.00  0.00    +0.000 OA
ENDROOT
TORSDOF 0
REMARK  Name = ../refined-set-2016/4e6q/4e6q_pocket.pdb
REMARK  233 active torsions:
REMARK  status: ('A' for Active; 'I' for Inactive)
REMARK    1  A    between atoms: _1  and  _3
REMARK    2  A    between atoms: _3  and  _4
REMARK    3  A    between atoms: _3  and  _6
REMARK    4  A    between atoms: _6  and  _7
REMARK    5  A    between atoms: _7  and  _8
REMARK    6  A    between atoms: _8  and  _9
REMARK    7  A    between atoms: _18  and  _20
REMARK    8  A    between atoms: _20  and  _21
REMARK    9  A    between atoms: _20  and  _23
REMARK   10  A    between atoms: _23  and  _24
REMARK   11  A    between atoms: _24  and  _25
REMARK   12  A    between atoms: _30  and  _32
REMARK   13  A    between atoms: _32  and  _33
REMARK   14  A    between atoms: _32  and  _35
REMARK   15  A    between atoms: _35  and  _36
REMARK   16  A    between atoms: _39  and  _41
REMARK   17  A    between atoms: _41  and  _42
REMARK   18  A    between atoms: _44  and  _46
REMARK   19  A    between atoms: _46  and  _47
REMARK   20  A    between atoms: _46  and  _49
REMARK   21  A    between atoms: _49  and  _50
REMARK   22  A    between atoms: _50  and  _51
REMARK   23  A    between atoms: _51  and  _52
REMARK   24  A    between atoms: _52  and  _53
REMARK   25  A    between atoms: _57  and  _59
REMARK   26  A    between atoms: _59  and  _60
REMARK   27  A    between atoms: _62  and  _64
REMARK   28  A    between atoms: _64  and  _65
REMARK   29  A    between atoms: _64  and  _67
REMARK   30  A    between atoms: _67  and  _68
REMARK   31  A    between atoms: _73  and  _75
REMARK   32  A    between atoms: _75  and  _76
REMARK   33  A    between atoms: _75  and  _78
REMARK   34  A    between atoms: _78  and  _79
REMARK   35  A    between atoms: _85  and  _87
REMARK   36  A    between atoms: _87  and  _88
REMARK   37  A    between atoms: _90  and  _92
REMARK   38  A    between atoms: _92  and  _93
REMARK   39  A    between atoms: _92  and  _95
REMARK   40  A    between atoms: _95  and  _96
REMARK   41  A    between atoms: _98  and  _100
REMARK   42  A    between atoms: _100  and  _101
REMARK   43  A    between atoms: _100  and  _103
REMARK   44  A    between atoms: _106  and  _108
REMARK   45  A    between atoms: _108  and  _109
REMARK   46  A    between atoms: _108  and  _111
REMARK   47  A    between atoms: _111  and  _112
REMARK   48  A    between atoms: _112  and  _113
REMARK   49  A    between atoms: _116  and  _118
REMARK   50  A    between atoms: _118  and  _119
REMARK   51  A    between atoms: _118  and  _121
REMARK   52  A    between atoms: _121  and  _122
REMARK   53  A    between atoms: _122  and  _123
REMARK   54  A    between atoms: _125  and  _127
REMARK   55  A    between atoms: _127  and  _128
REMARK   56  A    between atoms: _127  and  _130
REMARK   57  A    between atoms: _133  and  _135
REMARK   58  A    between atoms: _135  and  _136
REMARK   59  A    between atoms: _135  and  _138
REMARK   60  A    between atoms: _141  and  _143
REMARK   61  A    between atoms: _143  and  _144
REMARK   62  A    between atoms: _147  and  _149
REMARK   63  A    between atoms: _149  and  _150
REMARK   64  A    between atoms: _149  and  _152
REMARK   65  A    between atoms: _155  and  _157
REMARK   66  A    between atoms: _157  and  _158
REMARK   67  A    between atoms: _157  and  _160
REMARK   68  A    between atoms: _160  and  _161
REMARK   69  A    between atoms: _161  and  _162
REMARK   70  A    between atoms: _162  and  _163
REMARK   71  A    between atoms: _163  and  _164
REMARK   72  A    between atoms: _168  and  _170
REMARK   73  A    between atoms: _170  and  _171
REMARK   74  A    between atoms: _170  and  _173
REMARK   75  A    between atoms: _173  and  _174
REMARK   76  A    between atoms: _174  and  _175
REMARK   77  A    between atoms: _175  and  _176
REMARK   78  A    between atoms: _176  and  _177
REMARK   79  A    between atoms: _181  and  _183
REMARK   80  A    between atoms: _183  and  _184
REMARK   81  A    between atoms: _183  and  _186
REMARK   82  A    between atoms: _186  and  _187
REMARK   83  A    between atoms: _190  and  _192
REMARK   84  A    between atoms: _192  and  _193
REMARK   85  A    between atoms: _192  and  _195
REMARK   86  A    between atoms: _195  and  _196
REMARK   87  A    between atoms: _196  and  _197
REMARK   88  A    between atoms: _202  and  _204
REMARK   89  A    between atoms: _204  and  _205
REMARK   90  A    between atoms: _204  and  _207
REMARK   91  A    between atoms: _207  and  _208
REMARK   92  A    between atoms: _214  and  _216
REMARK   93  A    between atoms: _216  and  _217
REMARK   94  A    between atoms: _216  and  _219
REMARK   95  A    between atoms: _219  and  _220
REMARK   96  A    between atoms: _220  and  _221
REMARK   97  A    between atoms: _224  and  _226
REMARK   98  A    between atoms: _226  and  _227
REMARK   99  A    between atoms: _226  and  _229
REMARK  100  A    between atoms: _229  and  _230
REMARK  101  A    between atoms: _233  and  _235
REMARK  102  A    between atoms: _235  and  _236
REMARK  103  A    between atoms: _235  and  _238
REMARK  104  A    between atoms: _241  and  _243
REMARK  105  A    between atoms: _243  and  _244
REMARK  106  A    between atoms: _243  and  _246
REMARK  107  A    between atoms: _246  and  _247
REMARK  108  A    between atoms: _247  and  _248
REMARK  109  A    between atoms: _248  and  _249
REMARK  110  A    between atoms: _249  and  _250
REMARK  111  A    between atoms: _254  and  _256
REMARK  112  A    between atoms: _256  and  _257
REMARK  113  A    between atoms: _256  and  _259
REMARK  114  A    between atoms: _259  and  _260
REMARK  115  A    between atoms: _260  and  _261
REMARK  116  A    between atoms: _261  and  _262
REMARK  117  A    between atoms: _262  and  _263
REMARK  118  A    between atoms: _267  and  _269
REMARK  119  A    between atoms: _269  and  _270
REMARK  120  A    between atoms: _269  and  _272
REMARK  121  A    between atoms: _272  and  _273
REMARK  122  A    between atoms: _276  and  _278
REMARK  123  A    between atoms: _278  and  _279
REMARK  124  A    between atoms: _278  and  _281
REMARK  125  A    between atoms: _281  and  _282
REMARK  126  A    between atoms: _285  and  _287
REMARK  127  A    between atoms: _287  and  _288
REMARK  128  A    between atoms: _287  and  _290
REMARK  129  A    between atoms: _290  and  _291
REMARK  130  A    between atoms: _291  and  _292
REMARK  131  A    between atoms: _294  and  _296
REMARK  132  A    between atoms: _296  and  _297
REMARK  133  A    between atoms: _296  and  _299
REMARK  134  A    between atoms: _299  and  _300
REMARK  135  A    between atoms: _300  and  _301
REMARK  136  A    between atoms: _304  and  _306
REMARK  137  A    between atoms: _306  and  _307
REMARK  138  A    between atoms: _306  and  _309
REMARK  139  A    between atoms: _309  and  _310
REMARK  140  A    between atoms: _316  and  _318
REMARK  141  A    between atoms: _318  and  _319
REMARK  142  A    between atoms: _318  and  _321
REMARK  143  A    between atoms: _321  and  _322
REMARK  144  A    between atoms: _326  and  _327
REMARK  145  A    between atoms: _332  and  _334
REMARK  146  A    between atoms: _334  and  _335
REMARK  147  A    between atoms: _334  and  _337
REMARK  148  A    between atoms: _337  and  _338
REMARK  149  A    between atoms: _343  and  _344
REMARK  150  A    between atoms: _346  and  _348
REMARK  151  A    between atoms: _348  and  _349
REMARK  152  A    between atoms: _351  and  _353
REMARK  153  A    between atoms: _353  and  _354
REMARK  154  A    between atoms: _353  and  _356
REMARK  155  A    between atoms: _356  and  _357
REMARK  156  A    between atoms: _359  and  _361
REMARK  157  A    between atoms: _361  and  _362
REMARK  158  A    between atoms: _361  and  _364
REMARK  159  A    between atoms: _364  and  _365
REMARK  160  A    between atoms: _368  and  _370
REMARK  161  A    between atoms: _370  and  _371
REMARK  162  A    between atoms: _370  and  _373
REMARK  163  A    between atoms: _373  and  _374
REMARK  164  A    between atoms: _374  and  _375
REMARK  165  A    between atoms: _375  and  _376
REMARK  166  A    between atoms: _385  and  _387
REMARK  167  A    between atoms: _387  and  _388
REMARK  168  A    between atoms: _387  and  _390
REMARK  169  A    between atoms: _390  and  _391
REMARK  170  A    between atoms: _391  and  _392
REMARK  171  A    between atoms: _395  and  _397
REMARK  172  A    between atoms: _397  and  _398
REMARK  173  A    between atoms: _397  and  _400
REMARK  174  A    between atoms: _400  and  _401
REMARK  175  A    between atoms: _404  and  _406
REMARK  176  A    between atoms: _406  and  _407
REMARK  177  A    between atoms: _410  and  _412
REMARK  178  A    between atoms: _412  and  _413
REMARK  179  A    between atoms: _412  and  _415
REMARK  180  A    between atoms: _415  and  _416
REMARK  181  A    between atoms: _419  and  _421
REMARK  182  A    between atoms: _421  and  _422
REMARK  183  A    between atoms: _421  and  _424
REMARK  184  A    between atoms: _424  and  _425
REMARK  185  A    between atoms: _425  and  _426
REMARK  186  A    between atoms: _426  and  _427
REMARK  187  A    between atoms: _436  and  _438
REMARK  188  A    between atoms: _438  and  _439
REMARK  189  A    between atoms: _438  and  _441
REMARK  190  A    between atoms: _441  and  _442
REMARK  191  A    between atoms: _447  and  _449
REMARK  192  A    between atoms: _449  and  _450
REMARK  193  A    between atoms: _449  and  _452
REMARK  194  A    between atoms: _452  and  _453
REMARK  195  A    between atoms: _456  and  _458
REMARK  196  A    between atoms: _458  and  _459
REMARK  197  A    between atoms: _458  and  _461
REMARK  198  A    between atoms: _461  and  _462
REMARK  199  A    between atoms: _465  and  _467
REMARK  200  A    between atoms: _467  and  _468
REMARK  201  A    between atoms: _467  and  _470
REMARK  202  A    between atoms: _473  and  _475
REMARK  203  A    between atoms: _475  and  _476
REMARK  204  A    between atoms: _475  and  _478
REMARK  205  A    between atoms: _478  and  _479
REMARK  206  A    between atoms: _479  and  _480
REMARK  207  A    between atoms: _483  and  _485
REMARK  208  A    between atoms: _485  and  _486
REMARK  209  A    between atoms: _485  and  _488
REMARK  210  A    between atoms: _488  and  _489
REMARK  211  A    between atoms: _489  and  _490
REMARK  212  A    between atoms: _490  and  _491
REMARK  213  A    between atoms: _491  and  _492
REMARK  214  A    between atoms: _496  and  _498
REMARK  215  A    between atoms: _498  and  _499
REMARK  216  A    between atoms: _498  and  _501
REMARK  217  A    between atoms: _501  and  _502
REMARK  218  A    between atoms: _505  and  _507
REMARK  219  A    between atoms: _507  and  _508
REMARK  220  A    between atoms: _510  and  _512
REMARK  221  A    between atoms: _512  and  _513
REMARK  222  A    between atoms: _512  and  _515
REMARK  223  A    between atoms: _515  and  _516
REMARK  224  A    between atoms: _519  and  _521
REMARK  225  A    between atoms: _521  and  _522
REMARK  226  A    between atoms: _521  and  _524
REMARK  227  A    between atoms: _524  and  _525
REMARK  228  A    between atoms: _531  and  _533
REMARK  229  A    between atoms: _533  and  _534
REMARK  230  A    between atoms: _536  and  _538
REMARK  231  A    between atoms: _538  and  _539
REMARK  232  A    between atoms: _538  and  _541
REMARK  233  A    between atoms: _541  and  _542
REMARK                            x       y       z     vdW  Elec       q    Type
REMARK                         _______ _______ _______ _____ _____    ______ ____
ROOT
ATOM      1  O   HOH     1      11.977  30.270  21.519  0.00  0.00    +0.000 OA
ENDROOT
TORSDOF 0
REMARK  Name = ../refined-set-2016/4e6q/4e6q_pocket.pdb
REMARK  233 active torsions:
REMARK  status: ('A' for Active; 'I' for Inactive)
REMARK    1  A    between atoms: _1  and  _3
REMARK    2  A    between atoms: _3  and  _4
REMARK    3  A    between atoms: _3  and  _6
REMARK    4  A    between atoms: _6  and  _7
REMARK    5  A    between atoms: _7  and  _8
REMARK    6  A    between atoms: _8  and  _9
REMARK    7  A    between atoms: _18  and  _20
REMARK    8  A    between atoms: _20  and  _21
REMARK    9  A    between atoms: _20  and  _23
REMARK   10  A    between atoms: _23  and  _24
REMARK   11  A    between atoms: _24  and  _25
REMARK   12  A    between atoms: _30  and  _32
REMARK   13  A    between atoms: _32  and  _33
REMARK   14  A    between atoms: _32  and  _35
REMARK   15  A    between atoms: _35  and  _36
REMARK   16  A    between atoms: _39  and  _41
REMARK   17  A    between atoms: _41  and  _42
REMARK   18  A    between atoms: _44  and  _46
REMARK   19  A    between atoms: _46  and  _47
REMARK   20  A    between atoms: _46  and  _49
REMARK   21  A    between atoms: _49  and  _50
REMARK   22  A    between atoms: _50  and  _51
REMARK   23  A    between atoms: _51  and  _52
REMARK   24  A    between atoms: _52  and  _53
REMARK   25  A    between atoms: _57  and  _59
REMARK   26  A    between atoms: _59  and  _60
REMARK   27  A    between atoms: _62  and  _64
REMARK   28  A    between atoms: _64  and  _65
REMARK   29  A    between atoms: _64  and  _67
REMARK   30  A    between atoms: _67  and  _68
REMARK   31  A    between atoms: _73  and  _75
REMARK   32  A    between atoms: _75  and  _76
REMARK   33  A    between atoms: _75  and  _78
REMARK   34  A    between atoms: _78  and  _79
REMARK   35  A    between atoms: _85  and  _87
REMARK   36  A    between atoms: _87  and  _88
REMARK   37  A    between atoms: _90  and  _92
REMARK   38  A    between atoms: _92  and  _93
REMARK   39  A    between atoms: _92  and  _95
REMARK   40  A    between atoms: _95  and  _96
REMARK   41  A    between atoms: _98  and  _100
REMARK   42  A    between atoms: _100  and  _101
REMARK   43  A    between atoms: _100  and  _103
REMARK   44  A    between atoms: _106  and  _108
REMARK   45  A    between atoms: _108  and  _109
REMARK   46  A    between atoms: _108  and  _111
REMARK   47  A    between atoms: _111  and  _112
REMARK   48  A    between atoms: _112  and  _113
REMARK   49  A    between atoms: _116  and  _118
REMARK   50  A    between atoms: _118  and  _119
REMARK   51  A    between atoms: _118  and  _121
REMARK   52  A    between atoms: _121  and  _122
REMARK   53  A    between atoms: _122  and  _123
REMARK   54  A    between atoms: _125  and  _127
REMARK   55  A    between atoms: _127  and  _128
REMARK   56  A    between atoms: _127  and  _130
REMARK   57  A    between atoms: _133  and  _135
REMARK   58  A    between atoms: _135  and  _136
REMARK   59  A    between atoms: _135  and  _138
REMARK   60  A    between atoms: _141  and  _143
REMARK   61  A    between atoms: _143  and  _144
REMARK   62  A    between atoms: _147  and  _149
REMARK   63  A    between atoms: _149  and  _150
REMARK   64  A    between atoms: _149  and  _152
REMARK   65  A    between atoms: _155  and  _157
REMARK   66  A    between atoms: _157  and  _158
REMARK   67  A    between atoms: _157  and  _160
REMARK   68  A    between atoms: _160  and  _161
REMARK   69  A    between atoms: _161  and  _162
REMARK   70  A    between atoms: _162  and  _163
REMARK   71  A    between atoms: _163  and  _164
REMARK   72  A    between atoms: _168  and  _170
REMARK   73  A    between atoms: _170  and  _171
REMARK   74  A    between atoms: _170  and  _173
REMARK   75  A    between atoms: _173  and  _174
REMARK   76  A    between atoms: _174  and  _175
REMARK   77  A    between atoms: _175  and  _176
REMARK   78  A    between atoms: _176  and  _177
REMARK   79  A    between atoms: _181  and  _183
REMARK   80  A    between atoms: _183  and  _184
REMARK   81  A    between atoms: _183  and  _186
REMARK   82  A    between atoms: _186  and  _187
REMARK   83  A    between atoms: _190  and  _192
REMARK   84  A    between atoms: _192  and  _193
REMARK   85  A    between atoms: _192  and  _195
REMARK   86  A    between atoms: _195  and  _196
REMARK   87  A    between atoms: _196  and  _197
REMARK   88  A    between atoms: _202  and  _204
REMARK   89  A    between atoms: _204  and  _205
REMARK   90  A    between atoms: _204  and  _207
REMARK   91  A    between atoms: _207  and  _208
REMARK   92  A    between atoms: _214  and  _216
REMARK   93  A    between atoms: _216  and  _217
REMARK   94  A    between atoms: _216  and  _219
REMARK   95  A    between atoms: _219  and  _220
REMARK   96  A    between atoms: _220  and  _221
REMARK   97  A    between atoms: _224  and  _226
REMARK   98  A    between atoms: _226  and  _227
REMARK   99  A    between atoms: _226  and  _229
REMARK  100  A    between atoms: _229  and  _230
REMARK  101  A    between atoms: _233  and  _235
REMARK  102  A    between atoms: _235  and  _236
REMARK  103  A    between atoms: _235  and  _238
REMARK  104  A    between atoms: _241  and  _243
REMARK  105  A    between atoms: _243  and  _244
REMARK  106  A    between atoms: _243  and  _246
REMARK  107  A    between atoms: _246  and  _247
REMARK  108  A    between atoms: _247  and  _248
REMARK  109  A    between atoms: _248  and  _249
REMARK  110  A    between atoms: _249  and  _250
REMARK  111  A    between atoms: _254  and  _256
REMARK  112  A    between atoms: _256  and  _257
REMARK  113  A    between atoms: _256  and  _259
REMARK  114  A    between atoms: _259  and  _260
REMARK  115  A    between atoms: _260  and  _261
REMARK  116  A    between atoms: _261  and  _262
REMARK  117  A    between atoms: _262  and  _263
REMARK  118  A    between atoms: _267  and  _269
REMARK  119  A    between atoms: _269  and  _270
REMARK  120  A    between atoms: _269  and  _272
REMARK  121  A    between atoms: _272  and  _273
REMARK  122  A    between atoms: _276  and  _278
REMARK  123  A    between atoms: _278  and  _279
REMARK  124  A    between atoms: _278  and  _281
REMARK  125  A    between atoms: _281  and  _282
REMARK  126  A    between atoms: _285  and  _287
REMARK  127  A    between atoms: _287  and  _288
REMARK  128  A    between atoms: _287  and  _290
REMARK  129  A    between atoms: _290  and  _291
REMARK  130  A    between atoms: _291  and  _292
REMARK  131  A    between atoms: _294  and  _296
REMARK  132  A    between atoms: _296  and  _297
REMARK  133  A    between atoms: _296  and  _299
REMARK  134  A    between atoms: _299  and  _300
REMARK  135  A    between atoms: _300  and  _301
REMARK  136  A    between atoms: _304  and  _306
REMARK  137  A    between atoms: _306  and  _307
REMARK  138  A    between atoms: _306  and  _309
REMARK  139  A    between atoms: _309  and  _310
REMARK  140  A    between atoms: _316  and  _318
REMARK  141  A    between atoms: _318  and  _319
REMARK  142  A    between atoms: _318  and  _321
REMARK  143  A    between atoms: _321  and  _322
REMARK  144  A    between atoms: _326  and  _327
REMARK  145  A    between atoms: _332  and  _334
REMARK  146  A    between atoms: _334  and  _335
REMARK  147  A    between atoms: _334  and  _337
REMARK  148  A    between atoms: _337  and  _338
REMARK  149  A    between atoms: _343  and  _344
REMARK  150  A    between atoms: _346  and  _348
REMARK  151  A    between atoms: _348  and  _349
REMARK  152  A    between atoms: _351  and  _353
REMARK  153  A    between atoms: _353  and  _354
REMARK  154  A    between atoms: _353  and  _356
REMARK  155  A    between atoms: _356  and  _357
REMARK  156  A    between atoms: _359  and  _361
REMARK  157  A    between atoms: _361  and  _362
REMARK  158  A    between atoms: _361  and  _364
REMARK  159  A    between atoms: _364  and  _365
REMARK  160  A    between atoms: _368  and  _370
REMARK  161  A    between atoms: _370  and  _371
REMARK  162  A    between atoms: _370  and  _373
REMARK  163  A    between atoms: _373  and  _374
REMARK  164  A    between atoms: _374  and  _375
REMARK  165  A    between atoms: _375  and  _376
REMARK  166  A    between atoms: _385  and  _387
REMARK  167  A    between atoms: _387  and  _388
REMARK  168  A    between atoms: _387  and  _390
REMARK  169  A    between atoms: _390  and  _391
REMARK  170  A    between atoms: _391  and  _392
REMARK  171  A    between atoms: _395  and  _397
REMARK  172  A    between atoms: _397  and  _398
REMARK  173  A    between atoms: _397  and  _400
REMARK  174  A    between atoms: _400  and  _401
REMARK  175  A    between atoms: _404  and  _406
REMARK  176  A    between atoms: _406  and  _407
REMARK  177  A    between atoms: _410  and  _412
REMARK  178  A    between atoms: _412  and  _413
REMARK  179  A    between atoms: _412  and  _415
REMARK  180  A    between atoms: _415  and  _416
REMARK  181  A    between atoms: _419  and  _421
REMARK  182  A    between atoms: _421  and  _422
REMARK  183  A    between atoms: _421  and  _424
REMARK  184  A    between atoms: _424  and  _425
REMARK  185  A    between atoms: _425  and  _426
REMARK  186  A    between atoms: _426  and  _427
REMARK  187  A    between atoms: _436  and  _438
REMARK  188  A    between atoms: _438  and  _439
REMARK  189  A    between atoms: _438  and  _441
REMARK  190  A    between atoms: _441  and  _442
REMARK  191  A    between atoms: _447  and  _449
REMARK  192  A    between atoms: _449  and  _450
REMARK  193  A    between atoms: _449  and  _452
REMARK  194  A    between atoms: _452  and  _453
REMARK  195  A    between atoms: _456  and  _458
REMARK  196  A    between atoms: _458  and  _459
REMARK  197  A    between atoms: _458  and  _461
REMARK  198  A    between atoms: _461  and  _462
REMARK  199  A    between atoms: _465  and  _467
REMARK  200  A    between atoms: _467  and  _468
REMARK  201  A    between atoms: _467  and  _470
REMARK  202  A    between atoms: _473  and  _475
REMARK  203  A    between atoms: _475  and  _476
REMARK  204  A    between atoms: _475  and  _478
REMARK  205  A    between atoms: _478  and  _479
REMARK  206  A    between atoms: _479  and  _480
REMARK  207  A    between atoms: _483  and  _485
REMARK  208  A    between atoms: _485  and  _486
REMARK  209  A    between atoms: _485  and  _488
REMARK  210  A    between atoms: _488  and  _489
REMARK  211  A    between atoms: _489  and  _490
REMARK  212  A    between atoms: _490  and  _491
REMARK  213  A    between atoms: _491  and  _492
REMARK  214  A    between atoms: _496  and  _498
REMARK  215  A    between atoms: _498  and  _499
REMARK  216  A    between atoms: _498  and  _501
REMARK  217  A    between atoms: _501  and  _502
REMARK  218  A    between atoms: _505  and  _507
REMARK  219  A    between atoms: _507  and  _508
REMARK  220  A    between atoms: _510  and  _512
REMARK  221  A    between atoms: _512  and  _513
REMARK  222  A    between atoms: _512  and  _515
REMARK  223  A    between atoms: _515  and  _516
REMARK  224  A    between atoms: _519  and  _521
REMARK  225  A    between atoms: _521  and  _522
REMARK  226  A    between atoms: _521  and  _524
REMARK  227  A    between atoms: _524  and  _525
REMARK  228  A    between atoms: _531  and  _533
REMARK  229  A    between atoms: _533  and  _534
REMARK  230  A    between atoms: _536  and  _538
REMARK  231  A    between atoms: _538  and  _539
REMARK  232  A    between atoms: _538  and  _541
REMARK  233  A    between atoms: _541  and  _542
REMARK                            x       y       z     vdW  Elec       q    Type
REMARK                         _______ _______ _______ _____ _____    ______ ____
ROOT
ATOM      1  O   HOH     1      12.715  32.559   9.505  0.00  0.00    +0.000 OA
ENDROOT
TORSDOF 0
REMARK  Name = ../refined-set-2016/4e6q/4e6q_pocket.pdb
REMARK  233 active torsions:
REMARK  status: ('A' for Active; 'I' for Inactive)
REMARK    1  A    between atoms: _1  and  _3
REMARK    2  A    between atoms: _3  and  _4
REMARK    3  A    between atoms: _3  and  _6
REMARK    4  A    between atoms: _6  and  _7
REMARK    5  A    between atoms: _7  and  _8
REMARK    6  A    between atoms: _8  and  _9
REMARK    7  A    between atoms: _18  and  _20
REMARK    8  A    between atoms: _20  and  _21
REMARK    9  A    between atoms: _20  and  _23
REMARK   10  A    between atoms: _23  and  _24
REMARK   11  A    between atoms: _24  and  _25
REMARK   12  A    between atoms: _30  and  _32
REMARK   13  A    between atoms: _32  and  _33
REMARK   14  A    between atoms: _32  and  _35
REMARK   15  A    between atoms: _35  and  _36
REMARK   16  A    between atoms: _39  and  _41
REMARK   17  A    between atoms: _41  and  _42
REMARK   18  A    between atoms: _44  and  _46
REMARK   19  A    between atoms: _46  and  _47
REMARK   20  A    between atoms: _46  and  _49
REMARK   21  A    between atoms: _49  and  _50
REMARK   22  A    between atoms: _50  and  _51
REMARK   23  A    between atoms: _51  and  _52
REMARK   24  A    between atoms: _52  and  _53
REMARK   25  A    between atoms: _57  and  _59
REMARK   26  A    between atoms: _59  and  _60
REMARK   27  A    between atoms: _62  and  _64
REMARK   28  A    between atoms: _64  and  _65
REMARK   29  A    between atoms: _64  and  _67
REMARK   30  A    between atoms: _67  and  _68
REMARK   31  A    between atoms: _73  and  _75
REMARK   32  A    between atoms: _75  and  _76
REMARK   33  A    between atoms: _75  and  _78
REMARK   34  A    between atoms: _78  and  _79
REMARK   35  A    between atoms: _85  and  _87
REMARK   36  A    between atoms: _87  and  _88
REMARK   37  A    between atoms: _90  and  _92
REMARK   38  A    between atoms: _92  and  _93
REMARK   39  A    between atoms: _92  and  _95
REMARK   40  A    between atoms: _95  and  _96
REMARK   41  A    between atoms: _98  and  _100
REMARK   42  A    between atoms: _100  and  _101
REMARK   43  A    between atoms: _100  and  _103
REMARK   44  A    between atoms: _106  and  _108
REMARK   45  A    between atoms: _108  and  _109
REMARK   46  A    between atoms: _108  and  _111
REMARK   47  A    between atoms: _111  and  _112
REMARK   48  A    between atoms: _112  and  _113
REMARK   49  A    between atoms: _116  and  _118
REMARK   50  A    between atoms: _118  and  _119
REMARK   51  A    between atoms: _118  and  _121
REMARK   52  A    between atoms: _121  and  _122
REMARK   53  A    between atoms: _122  and  _123
REMARK   54  A    between atoms: _125  and  _127
REMARK   55  A    between atoms: _127  and  _128
REMARK   56  A    between atoms: _127  and  _130
REMARK   57  A    between atoms: _133  and  _135
REMARK   58  A    between atoms: _135  and  _136
REMARK   59  A    between atoms: _135  and  _138
REMARK   60  A    between atoms: _141  and  _143
REMARK   61  A    between atoms: _143  and  _144
REMARK   62  A    between atoms: _147  and  _149
REMARK   63  A    between atoms: _149  and  _150
REMARK   64  A    between atoms: _149  and  _152
REMARK   65  A    between atoms: _155  and  _157
REMARK   66  A    between atoms: _157  and  _158
REMARK   67  A    between atoms: _157  and  _160
REMARK   68  A    between atoms: _160  and  _161
REMARK   69  A    between atoms: _161  and  _162
REMARK   70  A    between atoms: _162  and  _163
REMARK   71  A    between atoms: _163  and  _164
REMARK   72  A    between atoms: _168  and  _170
REMARK   73  A    between atoms: _170  and  _171
REMARK   74  A    between atoms: _170  and  _173
REMARK   75  A    between atoms: _173  and  _174
REMARK   76  A    between atoms: _174  and  _175
REMARK   77  A    between atoms: _175  and  _176
REMARK   78  A    between atoms: _176  and  _177
REMARK   79  A    between atoms: _181  and  _183
REMARK   80  A    between atoms: _183  and  _184
REMARK   81  A    between atoms: _183  and  _186
REMARK   82  A    between atoms: _186  and  _187
REMARK   83  A    between atoms: _190  and  _192
REMARK   84  A    between atoms: _192  and  _193
REMARK   85  A    between atoms: _192  and  _195
REMARK   86  A    between atoms: _195  and  _196
REMARK   87  A    between atoms: _196  and  _197
REMARK   88  A    between atoms: _202  and  _204
REMARK   89  A    between atoms: _204  and  _205
REMARK   90  A    between atoms: _204  and  _207
REMARK   91  A    between atoms: _207  and  _208
REMARK   92  A    between atoms: _214  and  _216
REMARK   93  A    between atoms: _216  and  _217
REMARK   94  A    between atoms: _216  and  _219
REMARK   95  A    between atoms: _219  and  _220
REMARK   96  A    between atoms: _220  and  _221
REMARK   97  A    between atoms: _224  and  _226
REMARK   98  A    between atoms: _226  and  _227
REMARK   99  A    between atoms: _226  and  _229
REMARK  100  A    between atoms: _229  and  _230
REMARK  101  A    between atoms: _233  and  _235
REMARK  102  A    between atoms: _235  and  _236
REMARK  103  A    between atoms: _235  and  _238
REMARK  104  A    between atoms: _241  and  _243
REMARK  105  A    between atoms: _243  and  _244
REMARK  106  A    between atoms: _243  and  _246
REMARK  107  A    between atoms: _246  and  _247
REMARK  108  A    between atoms: _247  and  _248
REMARK  109  A    between atoms: _248  and  _249
REMARK  110  A    between atoms: _249  and  _250
REMARK  111  A    between atoms: _254  and  _256
REMARK  112  A    between atoms: _256  and  _257
REMARK  113  A    between atoms: _256  and  _259
REMARK  114  A    between atoms: _259  and  _260
REMARK  115  A    between atoms: _260  and  _261
REMARK  116  A    between atoms: _261  and  _262
REMARK  117  A    between atoms: _262  and  _263
REMARK  118  A    between atoms: _267  and  _269
REMARK  119  A    between atoms: _269  and  _270
REMARK  120  A    between atoms: _269  and  _272
REMARK  121  A    between atoms: _272  and  _273
REMARK  122  A    between atoms: _276  and  _278
REMARK  123  A    between atoms: _278  and  _279
REMARK  124  A    between atoms: _278  and  _281
REMARK  125  A    between atoms: _281  and  _282
REMARK  126  A    between atoms: _285  and  _287
REMARK  127  A    between atoms: _287  and  _288
REMARK  128  A    between atoms: _287  and  _290
REMARK  129  A    between atoms: _290  and  _291
REMARK  130  A    between atoms: _291  and  _292
REMARK  131  A    between atoms: _294  and  _296
REMARK  132  A    between atoms: _296  and  _297
REMARK  133  A    between atoms: _296  and  _299
REMARK  134  A    between atoms: _299  and  _300
REMARK  135  A    between atoms: _300  and  _301
REMARK  136  A    between atoms: _304  and  _306
REMARK  137  A    between atoms: _306  and  _307
REMARK  138  A    between atoms: _306  and  _309
REMARK  139  A    between atoms: _309  and  _310
REMARK  140  A    between atoms: _316  and  _318
REMARK  141  A    between atoms: _318  and  _319
REMARK  142  A    between atoms: _318  and  _321
REMARK  143  A    between atoms: _321  and  _322
REMARK  144  A    between atoms: _326  and  _327
REMARK  145  A    between atoms: _332  and  _334
REMARK  146  A    between atoms: _334  and  _335
REMARK  147  A    between atoms: _334  and  _337
REMARK  148  A    between atoms: _337  and  _338
REMARK  149  A    between atoms: _343  and  _344
REMARK  150  A    between atoms: _346  and  _348
REMARK  151  A    between atoms: _348  and  _349
REMARK  152  A    between atoms: _351  and  _353
REMARK  153  A    between atoms: _353  and  _354
REMARK  154  A    between atoms: _353  and  _356
REMARK  155  A    between atoms: _356  and  _357
REMARK  156  A    between atoms: _359  and  _361
REMARK  157  A    between atoms: _361  and  _362
REMARK  158  A    between atoms: _361  and  _364
REMARK  159  A    between atoms: _364  and  _365
REMARK  160  A    between atoms: _368  and  _370
REMARK  161  A    between atoms: _370  and  _371
REMARK  162  A    between atoms: _370  and  _373
REMARK  163  A    between atoms: _373  and  _374
REMARK  164  A    between atoms: _374  and  _375
REMARK  165  A    between atoms: _375  and  _376
REMARK  166  A    between atoms: _385  and  _387
REMARK  167  A    between atoms: _387  and  _388
REMARK  168  A    between atoms: _387  and  _390
REMARK  169  A    between atoms: _390  and  _391
REMARK  170  A    between atoms: _391  and  _392
REMARK  171  A    between atoms: _395  and  _397
REMARK  172  A    between atoms: _397  and  _398
REMARK  173  A    between atoms: _397  and  _400
REMARK  174  A    between atoms: _400  and  _401
REMARK  175  A    between atoms: _404  and  _406
REMARK  176  A    between atoms: _406  and  _407
REMARK  177  A    between atoms: _410  and  _412
REMARK  178  A    between atoms: _412  and  _413
REMARK  179  A    between atoms: _412  and  _415
REMARK  180  A    between atoms: _415  and  _416
REMARK  181  A    between atoms: _419  and  _421
REMARK  182  A    between atoms: _421  and  _422
REMARK  183  A    between atoms: _421  and  _424
REMARK  184  A    between atoms: _424  and  _425
REMARK  185  A    between atoms: _425  and  _426
REMARK  186  A    between atoms: _426  and  _427
REMARK  187  A    between atoms: _436  and  _438
REMARK  188  A    between atoms: _438  and  _439
REMARK  189  A    between atoms: _438  and  _441
REMARK  190  A    between atoms: _441  and  _442
REMARK  191  A    between atoms: _447  and  _449
REMARK  192  A    between atoms: _449  and  _450
REMARK  193  A    between atoms: _449  and  _452
REMARK  194  A    between atoms: _452  and  _453
REMARK  195  A    between atoms: _456  and  _458
REMARK  196  A    between atoms: _458  and  _459
REMARK  197  A    between atoms: _458  and  _461
REMARK  198  A    between atoms: _461  and  _462
REMARK  199  A    between atoms: _465  and  _467
REMARK  200  A    between atoms: _467  and  _468
REMARK  201  A    between atoms: _467  and  _470
REMARK  202  A    between atoms: _473  and  _475
REMARK  203  A    between atoms: _475  and  _476
REMARK  204  A    between atoms: _475  and  _478
REMARK  205  A    between atoms: _478  and  _479
REMARK  206  A    between atoms: _479  and  _480
REMARK  207  A    between atoms: _483  and  _485
REMARK  208  A    between atoms: _485  and  _486
REMARK  209  A    between atoms: _485  and  _488
REMARK  210  A    between atoms: _488  and  _489
REMARK  211  A    between atoms: _489  and  _490
REMARK  212  A    between atoms: _490  and  _491
REMARK  213  A    between atoms: _491  and  _492
REMARK  214  A    between atoms: _496  and  _498
REMARK  215  A    between atoms: _498  and  _499
REMARK  216  A    between atoms: _498  and  _501
REMARK  217  A    between atoms: _501  and  _502
REMARK  218  A    between atoms: _505  and  _507
REMARK  219  A    between atoms: _507  and  _508
REMARK  220  A    between atoms: _510  and  _512
REMARK  221  A    between atoms: _512  and  _513
REMARK  222  A    between atoms: _512  and  _515
REMARK  223  A    between atoms: _515  and  _516
REMARK  224  A    between atoms: _519  and  _521
REMARK  225  A    between atoms: _521  and  _522
REMARK  226  A    between atoms: _521  and  _524
REMARK  227  A    between atoms: _524  and  _525
REMARK  228  A    between atoms: _531  and  _533
REMARK  229  A    between atoms: _533  and  _534
REMARK  230  A    between atoms: _536  and  _538
REMARK  231  A    between atoms: _538  and  _539
REMARK  232  A    between atoms: _538  and  _541
REMARK  233  A    between atoms: _541  and  _542
REMARK                            x       y       z     vdW  Elec       q    Type
REMARK                         _______ _______ _______ _____ _____    ______ ____
ROOT
ATOM      1  O   HOH     1      13.293  32.433  21.076  0.00  0.00    +0.000 OA
ENDROOT
TORSDOF 0
REMARK  Name = ../refined-set-2016/4e6q/4e6q_pocket.pdb
REMARK  233 active torsions:
REMARK  status: ('A' for Active; 'I' for Inactive)
REMARK    1  A    between atoms: _1  and  _3
REMARK    2  A    between atoms: _3  and  _4
REMARK    3  A    between atoms: _3  and  _6
REMARK    4  A    between atoms: _6  and  _7
REMARK    5  A    between atoms: _7  and  _8
REMARK    6  A    between atoms: _8  and  _9
REMARK    7  A    between atoms: _18  and  _20
REMARK    8  A    between atoms: _20  and  _21
REMARK    9  A    between atoms: _20  and  _23
REMARK   10  A    between atoms: _23  and  _24
REMARK   11  A    between atoms: _24  and  _25
REMARK   12  A    between atoms: _30  and  _32
REMARK   13  A    between atoms: _32  and  _33
REMARK   14  A    between atoms: _32  and  _35
REMARK   15  A    between atoms: _35  and  _36
REMARK   16  A    between atoms: _39  and  _41
REMARK   17  A    between atoms: _41  and  _42
REMARK   18  A    between atoms: _44  and  _46
REMARK   19  A    between atoms: _46  and  _47
REMARK   20  A    between atoms: _46  and  _49
REMARK   21  A    between atoms: _49  and  _50
REMARK   22  A    between atoms: _50  and  _51
REMARK   23  A    between atoms: _51  and  _52
REMARK   24  A    between atoms: _52  and  _53
REMARK   25  A    between atoms: _57  and  _59
REMARK   26  A    between atoms: _59  and  _60
REMARK   27  A    between atoms: _62  and  _64
REMARK   28  A    between atoms: _64  and  _65
REMARK   29  A    between atoms: _64  and  _67
REMARK   30  A    between atoms: _67  and  _68
REMARK   31  A    between atoms: _73  and  _75
REMARK   32  A    between atoms: _75  and  _76
REMARK   33  A    between atoms: _75  and  _78
REMARK   34  A    between atoms: _78  and  _79
REMARK   35  A    between atoms: _85  and  _87
REMARK   36  A    between atoms: _87  and  _88
REMARK   37  A    between atoms: _90  and  _92
REMARK   38  A    between atoms: _92  and  _93
REMARK   39  A    between atoms: _92  and  _95
REMARK   40  A    between atoms: _95  and  _96
REMARK   41  A    between atoms: _98  and  _100
REMARK   42  A    between atoms: _100  and  _101
REMARK   43  A    between atoms: _100  and  _103
REMARK   44  A    between atoms: _106  and  _108
REMARK   45  A    between atoms: _108  and  _109
REMARK   46  A    between atoms: _108  and  _111
REMARK   47  A    between atoms: _111  and  _112
REMARK   48  A    between atoms: _112  and  _113
REMARK   49  A    between atoms: _116  and  _118
REMARK   50  A    between atoms: _118  and  _119
REMARK   51  A    between atoms: _118  and  _121
REMARK   52  A    between atoms: _121  and  _122
REMARK   53  A    between atoms: _122  and  _123
REMARK   54  A    between atoms: _125  and  _127
REMARK   55  A    between atoms: _127  and  _128
REMARK   56  A    between atoms: _127  and  _130
REMARK   57  A    between atoms: _133  and  _135
REMARK   58  A    between atoms: _135  and  _136
REMARK   59  A    between atoms: _135  and  _138
REMARK   60  A    between atoms: _141  and  _143
REMARK   61  A    between atoms: _143  and  _144
REMARK   62  A    between atoms: _147  and  _149
REMARK   63  A    between atoms: _149  and  _150
REMARK   64  A    between atoms: _149  and  _152
REMARK   65  A    between atoms: _155  and  _157
REMARK   66  A    between atoms: _157  and  _158
REMARK   67  A    between atoms: _157  and  _160
REMARK   68  A    between atoms: _160  and  _161
REMARK   69  A    between atoms: _161  and  _162
REMARK   70  A    between atoms: _162  and  _163
REMARK   71  A    between atoms: _163  and  _164
REMARK   72  A    between atoms: _168  and  _170
REMARK   73  A    between atoms: _170  and  _171
REMARK   74  A    between atoms: _170  and  _173
REMARK   75  A    between atoms: _173  and  _174
REMARK   76  A    between atoms: _174  and  _175
REMARK   77  A    between atoms: _175  and  _176
REMARK   78  A    between atoms: _176  and  _177
REMARK   79  A    between atoms: _181  and  _183
REMARK   80  A    between atoms: _183  and  _184
REMARK   81  A    between atoms: _183  and  _186
REMARK   82  A    between atoms: _186  and  _187
REMARK   83  A    between atoms: _190  and  _192
REMARK   84  A    between atoms: _192  and  _193
REMARK   85  A    between atoms: _192  and  _195
REMARK   86  A    between atoms: _195  and  _196
REMARK   87  A    between atoms: _196  and  _197
REMARK   88  A    between atoms: _202  and  _204
REMARK   89  A    between atoms: _204  and  _205
REMARK   90  A    between atoms: _204  and  _207
REMARK   91  A    between atoms: _207  and  _208
REMARK   92  A    between atoms: _214  and  _216
REMARK   93  A    between atoms: _216  and  _217
REMARK   94  A    between atoms: _216  and  _219
REMARK   95  A    between atoms: _219  and  _220
REMARK   96  A    between atoms: _220  and  _221
REMARK   97  A    between atoms: _224  and  _226
REMARK   98  A    between atoms: _226  and  _227
REMARK   99  A    between atoms: _226  and  _229
REMARK  100  A    between atoms: _229  and  _230
REMARK  101  A    between atoms: _233  and  _235
REMARK  102  A    between atoms: _235  and  _236
REMARK  103  A    between atoms: _235  and  _238
REMARK  104  A    between atoms: _241  and  _243
REMARK  105  A    between atoms: _243  and  _244
REMARK  106  A    between atoms: _243  and  _246
REMARK  107  A    between atoms: _246  and  _247
REMARK  108  A    between atoms: _247  and  _248
REMARK  109  A    between atoms: _248  and  _249
REMARK  110  A    between atoms: _249  and  _250
REMARK  111  A    between atoms: _254  and  _256
REMARK  112  A    between atoms: _256  and  _257
REMARK  113  A    between atoms: _256  and  _259
REMARK  114  A    between atoms: _259  and  _260
REMARK  115  A    between atoms: _260  and  _261
REMARK  116  A    between atoms: _261  and  _262
REMARK  117  A    between atoms: _262  and  _263
REMARK  118  A    between atoms: _267  and  _269
REMARK  119  A    between atoms: _269  and  _270
REMARK  120  A    between atoms: _269  and  _272
REMARK  121  A    between atoms: _272  and  _273
REMARK  122  A    between atoms: _276  and  _278
REMARK  123  A    between atoms: _278  and  _279
REMARK  124  A    between atoms: _278  and  _281
REMARK  125  A    between atoms: _281  and  _282
REMARK  126  A    between atoms: _285  and  _287
REMARK  127  A    between atoms: _287  and  _288
REMARK  128  A    between atoms: _287  and  _290
REMARK  129  A    between atoms: _290  and  _291
REMARK  130  A    between atoms: _291  and  _292
REMARK  131  A    between atoms: _294  and  _296
REMARK  132  A    between atoms: _296  and  _297
REMARK  133  A    between atoms: _296  and  _299
REMARK  134  A    between atoms: _299  and  _300
REMARK  135  A    between atoms: _300  and  _301
REMARK  136  A    between atoms: _304  and  _306
REMARK  137  A    between atoms: _306  and  _307
REMARK  138  A    between atoms: _306  and  _309
REMARK  139  A    between atoms: _309  and  _310
REMARK  140  A    between atoms: _316  and  _318
REMARK  141  A    between atoms: _318  and  _319
REMARK  142  A    between atoms: _318  and  _321
REMARK  143  A    between atoms: _321  and  _322
REMARK  144  A    between atoms: _326  and  _327
REMARK  145  A    between atoms: _332  and  _334
REMARK  146  A    between atoms: _334  and  _335
REMARK  147  A    between atoms: _334  and  _337
REMARK  148  A    between atoms: _337  and  _338
REMARK  149  A    between atoms: _343  and  _344
REMARK  150  A    between atoms: _346  and  _348
REMARK  151  A    between atoms: _348  and  _349
REMARK  152  A    between atoms: _351  and  _353
REMARK  153  A    between atoms: _353  and  _354
REMARK  154  A    between atoms: _353  and  _356
REMARK  155  A    between atoms: _356  and  _357
REMARK  156  A    between atoms: _359  and  _361
REMARK  157  A    between atoms: _361  and  _362
REMARK  158  A    between atoms: _361  and  _364
REMARK  159  A    between atoms: _364  and  _365
REMARK  160  A    between atoms: _368  and  _370
REMARK  161  A    between atoms: _370  and  _371
REMARK  162  A    between atoms: _370  and  _373
REMARK  163  A    between atoms: _373  and  _374
REMARK  164  A    between atoms: _374  and  _375
REMARK  165  A    between atoms: _375  and  _376
REMARK  166  A    between atoms: _385  and  _387
REMARK  167  A    between atoms: _387  and  _388
REMARK  168  A    between atoms: _387  and  _390
REMARK  169  A    between atoms: _390  and  _391
REMARK  170  A    between atoms: _391  and  _392
REMARK  171  A    between atoms: _395  and  _397
REMARK  172  A    between atoms: _397  and  _398
REMARK  173  A    between atoms: _397  and  _400
REMARK  174  A    between atoms: _400  and  _401
REMARK  175  A    between atoms: _404  and  _406
REMARK  176  A    between atoms: _406  and  _407
REMARK  177  A    between atoms: _410  and  _412
REMARK  178  A    between atoms: _412  and  _413
REMARK  179  A    between atoms: _412  and  _415
REMARK  180  A    between atoms: _415  and  _416
REMARK  181  A    between atoms: _419  and  _421
REMARK  182  A    between atoms: _421  and  _422
REMARK  183  A    between atoms: _421  and  _424
REMARK  184  A    between atoms: _424  and  _425
REMARK  185  A    between atoms: _425  and  _426
REMARK  186  A    between atoms: _426  and  _427
REMARK  187  A    between atoms: _436  and  _438
REMARK  188  A    between atoms: _438  and  _439
REMARK  189  A    between atoms: _438  and  _441
REMARK  190  A    between atoms: _441  and  _442
REMARK  191  A    between atoms: _447  and  _449
REMARK  192  A    between atoms: _449  and  _450
REMARK  193  A    between atoms: _449  and  _452
REMARK  194  A    between atoms: _452  and  _453
REMARK  195  A    between atoms: _456  and  _458
REMARK  196  A    between atoms: _458  and  _459
REMARK  197  A    between atoms: _458  and  _461
REMARK  198  A    between atoms: _461  and  _462
REMARK  199  A    between atoms: _465  and  _467
REMARK  200  A    between atoms: _467  and  _468
REMARK  201  A    between atoms: _467  and  _470
REMARK  202  A    between atoms: _473  and  _475
REMARK  203  A    between atoms: _475  and  _476
REMARK  204  A    between atoms: _475  and  _478
REMARK  205  A    between atoms: _478  and  _479
REMARK  206  A    between atoms: _479  and  _480
REMARK  207  A    between atoms: _483  and  _485
REMARK  208  A    between atoms: _485  and  _486
REMARK  209  A    between atoms: _485  and  _488
REMARK  210  A    between atoms: _488  and  _489
REMARK  211  A    between atoms: _489  and  _490
REMARK  212  A    between atoms: _490  and  _491
REMARK  213  A    between atoms: _491  and  _492
REMARK  214  A    between atoms: _496  and  _498
REMARK  215  A    between atoms: _498  and  _499
REMARK  216  A    between atoms: _498  and  _501
REMARK  217  A    between atoms: _501  and  _502
REMARK  218  A    between atoms: _505  and  _507
REMARK  219  A    between atoms: _507  and  _508
REMARK  220  A    between atoms: _510  and  _512
REMARK  221  A    between atoms: _512  and  _513
REMARK  222  A    between atoms: _512  and  _515
REMARK  223  A    between atoms: _515  and  _516
REMARK  224  A    between atoms: _519  and  _521
REMARK  225  A    between atoms: _521  and  _522
REMARK  226  A    between atoms: _521  and  _524
REMARK  227  A    between atoms: _524  and  _525
REMARK  228  A    between atoms: _531  and  _533
REMARK  229  A    between atoms: _533  and  _534
REMARK  230  A    between atoms: _536  and  _538
REMARK  231  A    between atoms: _538  and  _539
REMARK  232  A    between atoms: _538  and  _541
REMARK  233  A    between atoms: _541  and  _542
REMARK                            x       y       z     vdW  Elec       q    Type
REMARK                         _______ _______ _______ _____ _____    ______ ____
ROOT
ATOM      1  O   HOH     1      12.433  34.721  10.749  0.00  0.00    +0.000 OA
ENDROOT
TORSDOF 0
REMARK  Name = ../refined-set-2016/4e6q/4e6q_pocket.pdb
REMARK  233 active torsions:
REMARK  status: ('A' for Active; 'I' for Inactive)
REMARK    1  A    between atoms: _1  and  _3
REMARK    2  A    between atoms: _3  and  _4
REMARK    3  A    between atoms: _3  and  _6
REMARK    4  A    between atoms: _6  and  _7
REMARK    5  A    between atoms: _7  and  _8
REMARK    6  A    between atoms: _8  and  _9
REMARK    7  A    between atoms: _18  and  _20
REMARK    8  A    between atoms: _20  and  _21
REMARK    9  A    between atoms: _20  and  _23
REMARK   10  A    between atoms: _23  and  _24
REMARK   11  A    between atoms: _24  and  _25
REMARK   12  A    between atoms: _30  and  _32
REMARK   13  A    between atoms: _32  and  _33
REMARK   14  A    between atoms: _32  and  _35
REMARK   15  A    between atoms: _35  and  _36
REMARK   16  A    between atoms: _39  and  _41
REMARK   17  A    between atoms: _41  and  _42
REMARK   18  A    between atoms: _44  and  _46
REMARK   19  A    between atoms: _46  and  _47
REMARK   20  A    between atoms: _46  and  _49
REMARK   21  A    between atoms: _49  and  _50
REMARK   22  A    between atoms: _50  and  _51
REMARK   23  A    between atoms: _51  and  _52
REMARK   24  A    between atoms: _52  and  _53
REMARK   25  A    between atoms: _57  and  _59
REMARK   26  A    between atoms: _59  and  _60
REMARK   27  A    between atoms: _62  and  _64
REMARK   28  A    between atoms: _64  and  _65
REMARK   29  A    between atoms: _64  and  _67
REMARK   30  A    between atoms: _67  and  _68
REMARK   31  A    between atoms: _73  and  _75
REMARK   32  A    between atoms: _75  and  _76
REMARK   33  A    between atoms: _75  and  _78
REMARK   34  A    between atoms: _78  and  _79
REMARK   35  A    between atoms: _85  and  _87
REMARK   36  A    between atoms: _87  and  _88
REMARK   37  A    between atoms: _90  and  _92
REMARK   38  A    between atoms: _92  and  _93
REMARK   39  A    between atoms: _92  and  _95
REMARK   40  A    between atoms: _95  and  _96
REMARK   41  A    between atoms: _98  and  _100
REMARK   42  A    between atoms: _100  and  _101
REMARK   43  A    between atoms: _100  and  _103
REMARK   44  A    between atoms: _106  and  _108
REMARK   45  A    between atoms: _108  and  _109
REMARK   46  A    between atoms: _108  and  _111
REMARK   47  A    between atoms: _111  and  _112
REMARK   48  A    between atoms: _112  and  _113
REMARK   49  A    between atoms: _116  and  _118
REMARK   50  A    between atoms: _118  and  _119
REMARK   51  A    between atoms: _118  and  _121
REMARK   52  A    between atoms: _121  and  _122
REMARK   53  A    between atoms: _122  and  _123
REMARK   54  A    between atoms: _125  and  _127
REMARK   55  A    between atoms: _127  and  _128
REMARK   56  A    between atoms: _127  and  _130
REMARK   57  A    between atoms: _133  and  _135
REMARK   58  A    between atoms: _135  and  _136
REMARK   59  A    between atoms: _135  and  _138
REMARK   60  A    between atoms: _141  and  _143
REMARK   61  A    between atoms: _143  and  _144
REMARK   62  A    between atoms: _147  and  _149
REMARK   63  A    between atoms: _149  and  _150
REMARK   64  A    between atoms: _149  and  _152
REMARK   65  A    between atoms: _155  and  _157
REMARK   66  A    between atoms: _157  and  _158
REMARK   67  A    between atoms: _157  and  _160
REMARK   68  A    between atoms: _160  and  _161
REMARK   69  A    between atoms: _161  and  _162
REMARK   70  A    between atoms: _162  and  _163
REMARK   71  A    between atoms: _163  and  _164
REMARK   72  A    between atoms: _168  and  _170
REMARK   73  A    between atoms: _170  and  _171
REMARK   74  A    between atoms: _170  and  _173
REMARK   75  A    between atoms: _173  and  _174
REMARK   76  A    between atoms: _174  and  _175
REMARK   77  A    between atoms: _175  and  _176
REMARK   78  A    between atoms: _176  and  _177
REMARK   79  A    between atoms: _181  and  _183
REMARK   80  A    between atoms: _183  and  _184
REMARK   81  A    between atoms: _183  and  _186
REMARK   82  A    between atoms: _186  and  _187
REMARK   83  A    between atoms: _190  and  _192
REMARK   84  A    between atoms: _192  and  _193
REMARK   85  A    between atoms: _192  and  _195
REMARK   86  A    between atoms: _195  and  _196
REMARK   87  A    between atoms: _196  and  _197
REMARK   88  A    between atoms: _202  and  _204
REMARK   89  A    between atoms: _204  and  _205
REMARK   90  A    between atoms: _204  and  _207
REMARK   91  A    between atoms: _207  and  _208
REMARK   92  A    between atoms: _214  and  _216
REMARK   93  A    between atoms: _216  and  _217
REMARK   94  A    between atoms: _216  and  _219
REMARK   95  A    between atoms: _219  and  _220
REMARK   96  A    between atoms: _220  and  _221
REMARK   97  A    between atoms: _224  and  _226
REMARK   98  A    between atoms: _226  and  _227
REMARK   99  A    between atoms: _226  and  _229
REMARK  100  A    between atoms: _229  and  _230
REMARK  101  A    between atoms: _233  and  _235
REMARK  102  A    between atoms: _235  and  _236
REMARK  103  A    between atoms: _235  and  _238
REMARK  104  A    between atoms: _241  and  _243
REMARK  105  A    between atoms: _243  and  _244
REMARK  106  A    between atoms: _243  and  _246
REMARK  107  A    between atoms: _246  and  _247
REMARK  108  A    between atoms: _247  and  _248
REMARK  109  A    between atoms: _248  and  _249
REMARK  110  A    between atoms: _249  and  _250
REMARK  111  A    between atoms: _254  and  _256
REMARK  112  A    between atoms: _256  and  _257
REMARK  113  A    between atoms: _256  and  _259
REMARK  114  A    between atoms: _259  and  _260
REMARK  115  A    between atoms: _260  and  _261
REMARK  116  A    between atoms: _261  and  _262
REMARK  117  A    between atoms: _262  and  _263
REMARK  118  A    between atoms: _267  and  _269
REMARK  119  A    between atoms: _269  and  _270
REMARK  120  A    between atoms: _269  and  _272
REMARK  121  A    between atoms: _272  and  _273
REMARK  122  A    between atoms: _276  and  _278
REMARK  123  A    between atoms: _278  and  _279
REMARK  124  A    between atoms: _278  and  _281
REMARK  125  A    between atoms: _281  and  _282
REMARK  126  A    between atoms: _285  and  _287
REMARK  127  A    between atoms: _287  and  _288
REMARK  128  A    between atoms: _287  and  _290
REMARK  129  A    between atoms: _290  and  _291
REMARK  130  A    between atoms: _291  and  _292
REMARK  131  A    between atoms: _294  and  _296
REMARK  132  A    between atoms: _296  and  _297
REMARK  133  A    between atoms: _296  and  _299
REMARK  134  A    between atoms: _299  and  _300
REMARK  135  A    between atoms: _300  and  _301
REMARK  136  A    between atoms: _304  and  _306
REMARK  137  A    between atoms: _306  and  _307
REMARK  138  A    between atoms: _306  and  _309
REMARK  139  A    between atoms: _309  and  _310
REMARK  140  A    between atoms: _316  and  _318
REMARK  141  A    between atoms: _318  and  _319
REMARK  142  A    between atoms: _318  and  _321
REMARK  143  A    between atoms: _321  and  _322
REMARK  144  A    between atoms: _326  and  _327
REMARK  145  A    between atoms: _332  and  _334
REMARK  146  A    between atoms: _334  and  _335
REMARK  147  A    between atoms: _334  and  _337
REMARK  148  A    between atoms: _337  and  _338
REMARK  149  A    between atoms: _343  and  _344
REMARK  150  A    between atoms: _346  and  _348
REMARK  151  A    between atoms: _348  and  _349
REMARK  152  A    between atoms: _351  and  _353
REMARK  153  A    between atoms: _353  and  _354
REMARK  154  A    between atoms: _353  and  _356
REMARK  155  A    between atoms: _356  and  _357
REMARK  156  A    between atoms: _359  and  _361
REMARK  157  A    between atoms: _361  and  _362
REMARK  158  A    between atoms: _361  and  _364
REMARK  159  A    between atoms: _364  and  _365
REMARK  160  A    between atoms: _368  and  _370
REMARK  161  A    between atoms: _370  and  _371
REMARK  162  A    between atoms: _370  and  _373
REMARK  163  A    between atoms: _373  and  _374
REMARK  164  A    between atoms: _374  and  _375
REMARK  165  A    between atoms: _375  and  _376
REMARK  166  A    between atoms: _385  and  _387
REMARK  167  A    between atoms: _387  and  _388
REMARK  168  A    between atoms: _387  and  _390
REMARK  169  A    between atoms: _390  and  _391
REMARK  170  A    between atoms: _391  and  _392
REMARK  171  A    between atoms: _395  and  _397
REMARK  172  A    between atoms: _397  and  _398
REMARK  173  A    between atoms: _397  and  _400
REMARK  174  A    between atoms: _400  and  _401
REMARK  175  A    between atoms: _404  and  _406
REMARK  176  A    between atoms: _406  and  _407
REMARK  177  A    between atoms: _410  and  _412
REMARK  178  A    between atoms: _412  and  _413
REMARK  179  A    between atoms: _412  and  _415
REMARK  180  A    between atoms: _415  and  _416
REMARK  181  A    between atoms: _419  and  _421
REMARK  182  A    between atoms: _421  and  _422
REMARK  183  A    between atoms: _421  and  _424
REMARK  184  A    between atoms: _424  and  _425
REMARK  185  A    between atoms: _425  and  _426
REMARK  186  A    between atoms: _426  and  _427
REMARK  187  A    between atoms: _436  and  _438
REMARK  188  A    between atoms: _438  and  _439
REMARK  189  A    between atoms: _438  and  _441
REMARK  190  A    between atoms: _441  and  _442
REMARK  191  A    between atoms: _447  and  _449
REMARK  192  A    between atoms: _449  and  _450
REMARK  193  A    between atoms: _449  and  _452
REMARK  194  A    between atoms: _452  and  _453
REMARK  195  A    between atoms: _456  and  _458
REMARK  196  A    between atoms: _458  and  _459
REMARK  197  A    between atoms: _458  and  _461
REMARK  198  A    between atoms: _461  and  _462
REMARK  199  A    between atoms: _465  and  _467
REMARK  200  A    between atoms: _467  and  _468
REMARK  201  A    between atoms: _467  and  _470
REMARK  202  A    between atoms: _473  and  _475
REMARK  203  A    between atoms: _475  and  _476
REMARK  204  A    between atoms: _475  and  _478
REMARK  205  A    between atoms: _478  and  _479
REMARK  206  A    between atoms: _479  and  _480
REMARK  207  A    between atoms: _483  and  _485
REMARK  208  A    between atoms: _485  and  _486
REMARK  209  A    between atoms: _485  and  _488
REMARK  210  A    between atoms: _488  and  _489
REMARK  211  A    between atoms: _489  and  _490
REMARK  212  A    between atoms: _490  and  _491
REMARK  213  A    between atoms: _491  and  _492
REMARK  214  A    between atoms: _496  and  _498
REMARK  215  A    between atoms: _498  and  _499
REMARK  216  A    between atoms: _498  and  _501
REMARK  217  A    between atoms: _501  and  _502
REMARK  218  A    between atoms: _505  and  _507
REMARK  219  A    between atoms: _507  and  _508
REMARK  220  A    between atoms: _510  and  _512
REMARK  221  A    between atoms: _512  and  _513
REMARK  222  A    between atoms: _512  and  _515
REMARK  223  A    between atoms: _515  and  _516
REMARK  224  A    between atoms: _519  and  _521
REMARK  225  A    between atoms: _521  and  _522
REMARK  226  A    between atoms: _521  and  _524
REMARK  227  A    between atoms: _524  and  _525
REMARK  228  A    between atoms: _531  and  _533
REMARK  229  A    between atoms: _533  and  _534
REMARK  230  A    between atoms: _536  and  _538
REMARK  231  A    between atoms: _538  and  _539
REMARK  232  A    between atoms: _538  and  _541
REMARK  233  A    between atoms: _541  and  _542
REMARK                            x       y       z     vdW  Elec       q    Type
REMARK                         _______ _______ _______ _____ _____    ______ ____
ROOT
ATOM      1  O   HOH     1       9.242  27.499   2.739  0.00  0.00    +0.000 OA
ENDROOT
TORSDOF 0
REMARK  Name = ../refined-set-2016/4e6q/4e6q_pocket.pdb
REMARK  233 active torsions:
REMARK  status: ('A' for Active; 'I' for Inactive)
REMARK    1  A    between atoms: _1  and  _3
REMARK    2  A    between atoms: _3  and  _4
REMARK    3  A    between atoms: _3  and  _6
REMARK    4  A    between atoms: _6  and  _7
REMARK    5  A    between atoms: _7  and  _8
REMARK    6  A    between atoms: _8  and  _9
REMARK    7  A    between atoms: _18  and  _20
REMARK    8  A    between atoms: _20  and  _21
REMARK    9  A    between atoms: _20  and  _23
REMARK   10  A    between atoms: _23  and  _24
REMARK   11  A    between atoms: _24  and  _25
REMARK   12  A    between atoms: _30  and  _32
REMARK   13  A    between atoms: _32  and  _33
REMARK   14  A    between atoms: _32  and  _35
REMARK   15  A    between atoms: _35  and  _36
REMARK   16  A    between atoms: _39  and  _41
REMARK   17  A    between atoms: _41  and  _42
REMARK   18  A    between atoms: _44  and  _46
REMARK   19  A    between atoms: _46  and  _47
REMARK   20  A    between atoms: _46  and  _49
REMARK   21  A    between atoms: _49  and  _50
REMARK   22  A    between atoms: _50  and  _51
REMARK   23  A    between atoms: _51  and  _52
REMARK   24  A    between atoms: _52  and  _53
REMARK   25  A    between atoms: _57  and  _59
REMARK   26  A    between atoms: _59  and  _60
REMARK   27  A    between atoms: _62  and  _64
REMARK   28  A    between atoms: _64  and  _65
REMARK   29  A    between atoms: _64  and  _67
REMARK   30  A    between atoms: _67  and  _68
REMARK   31  A    between atoms: _73  and  _75
REMARK   32  A    between atoms: _75  and  _76
REMARK   33  A    between atoms: _75  and  _78
REMARK   34  A    between atoms: _78  and  _79
REMARK   35  A    between atoms: _85  and  _87
REMARK   36  A    between atoms: _87  and  _88
REMARK   37  A    between atoms: _90  and  _92
REMARK   38  A    between atoms: _92  and  _93
REMARK   39  A    between atoms: _92  and  _95
REMARK   40  A    between atoms: _95  and  _96
REMARK   41  A    between atoms: _98  and  _100
REMARK   42  A    between atoms: _100  and  _101
REMARK   43  A    between atoms: _100  and  _103
REMARK   44  A    between atoms: _106  and  _108
REMARK   45  A    between atoms: _108  and  _109
REMARK   46  A    between atoms: _108  and  _111
REMARK   47  A    between atoms: _111  and  _112
REMARK   48  A    between atoms: _112  and  _113
REMARK   49  A    between atoms: _116  and  _118
REMARK   50  A    between atoms: _118  and  _119
REMARK   51  A    between atoms: _118  and  _121
REMARK   52  A    between atoms: _121  and  _122
REMARK   53  A    between atoms: _122  and  _123
REMARK   54  A    between atoms: _125  and  _127
REMARK   55  A    between atoms: _127  and  _128
REMARK   56  A    between atoms: _127  and  _130
REMARK   57  A    between atoms: _133  and  _135
REMARK   58  A    between atoms: _135  and  _136
REMARK   59  A    between atoms: _135  and  _138
REMARK   60  A    between atoms: _141  and  _143
REMARK   61  A    between atoms: _143  and  _144
REMARK   62  A    between atoms: _147  and  _149
REMARK   63  A    between atoms: _149  and  _150
REMARK   64  A    between atoms: _149  and  _152
REMARK   65  A    between atoms: _155  and  _157
REMARK   66  A    between atoms: _157  and  _158
REMARK   67  A    between atoms: _157  and  _160
REMARK   68  A    between atoms: _160  and  _161
REMARK   69  A    between atoms: _161  and  _162
REMARK   70  A    between atoms: _162  and  _163
REMARK   71  A    between atoms: _163  and  _164
REMARK   72  A    between atoms: _168  and  _170
REMARK   73  A    between atoms: _170  and  _171
REMARK   74  A    between atoms: _170  and  _173
REMARK   75  A    between atoms: _173  and  _174
REMARK   76  A    between atoms: _174  and  _175
REMARK   77  A    between atoms: _175  and  _176
REMARK   78  A    between atoms: _176  and  _177
REMARK   79  A    between atoms: _181  and  _183
REMARK   80  A    between atoms: _183  and  _184
REMARK   81  A    between atoms: _183  and  _186
REMARK   82  A    between atoms: _186  and  _187
REMARK   83  A    between atoms: _190  and  _192
REMARK   84  A    between atoms: _192  and  _193
REMARK   85  A    between atoms: _192  and  _195
REMARK   86  A    between atoms: _195  and  _196
REMARK   87  A    between atoms: _196  and  _197
REMARK   88  A    between atoms: _202  and  _204
REMARK   89  A    between atoms: _204  and  _205
REMARK   90  A    between atoms: _204  and  _207
REMARK   91  A    between atoms: _207  and  _208
REMARK   92  A    between atoms: _214  and  _216
REMARK   93  A    between atoms: _216  and  _217
REMARK   94  A    between atoms: _216  and  _219
REMARK   95  A    between atoms: _219  and  _220
REMARK   96  A    between atoms: _220  and  _221
REMARK   97  A    between atoms: _224  and  _226
REMARK   98  A    between atoms: _226  and  _227
REMARK   99  A    between atoms: _226  and  _229
REMARK  100  A    between atoms: _229  and  _230
REMARK  101  A    between atoms: _233  and  _235
REMARK  102  A    between atoms: _235  and  _236
REMARK  103  A    between atoms: _235  and  _238
REMARK  104  A    between atoms: _241  and  _243
REMARK  105  A    between atoms: _243  and  _244
REMARK  106  A    between atoms: _243  and  _246
REMARK  107  A    between atoms: _246  and  _247
REMARK  108  A    between atoms: _247  and  _248
REMARK  109  A    between atoms: _248  and  _249
REMARK  110  A    between atoms: _249  and  _250
REMARK  111  A    between atoms: _254  and  _256
REMARK  112  A    between atoms: _256  and  _257
REMARK  113  A    between atoms: _256  and  _259
REMARK  114  A    between atoms: _259  and  _260
REMARK  115  A    between atoms: _260  and  _261
REMARK  116  A    between atoms: _261  and  _262
REMARK  117  A    between atoms: _262  and  _263
REMARK  118  A    between atoms: _267  and  _269
REMARK  119  A    between atoms: _269  and  _270
REMARK  120  A    between atoms: _269  and  _272
REMARK  121  A    between atoms: _272  and  _273
REMARK  122  A    between atoms: _276  and  _278
REMARK  123  A    between atoms: _278  and  _279
REMARK  124  A    between atoms: _278  and  _281
REMARK  125  A    between atoms: _281  and  _282
REMARK  126  A    between atoms: _285  and  _287
REMARK  127  A    between atoms: _287  and  _288
REMARK  128  A    between atoms: _287  and  _290
REMARK  129  A    between atoms: _290  and  _291
REMARK  130  A    between atoms: _291  and  _292
REMARK  131  A    between atoms: _294  and  _296
REMARK  132  A    between atoms: _296  and  _297
REMARK  133  A    between atoms: _296  and  _299
REMARK  134  A    between atoms: _299  and  _300
REMARK  135  A    between atoms: _300  and  _301
REMARK  136  A    between atoms: _304  and  _306
REMARK  137  A    between atoms: _306  and  _307
REMARK  138  A    between atoms: _306  and  _309
REMARK  139  A    between atoms: _309  and  _310
REMARK  140  A    between atoms: _316  and  _318
REMARK  141  A    between atoms: _318  and  _319
REMARK  142  A    between atoms: _318  and  _321
REMARK  143  A    between atoms: _321  and  _322
REMARK  144  A    between atoms: _326  and  _327
REMARK  145  A    between atoms: _332  and  _334
REMARK  146  A    between atoms: _334  and  _335
REMARK  147  A    between atoms: _334  and  _337
REMARK  148  A    between atoms: _337  and  _338
REMARK  149  A    between atoms: _343  and  _344
REMARK  150  A    between atoms: _346  and  _348
REMARK  151  A    between atoms: _348  and  _349
REMARK  152  A    between atoms: _351  and  _353
REMARK  153  A    between atoms: _353  and  _354
REMARK  154  A    between atoms: _353  and  _356
REMARK  155  A    between atoms: _356  and  _357
REMARK  156  A    between atoms: _359  and  _361
REMARK  157  A    between atoms: _361  and  _362
REMARK  158  A    between atoms: _361  and  _364
REMARK  159  A    between atoms: _364  and  _365
REMARK  160  A    between atoms: _368  and  _370
REMARK  161  A    between atoms: _370  and  _371
REMARK  162  A    between atoms: _370  and  _373
REMARK  163  A    between atoms: _373  and  _374
REMARK  164  A    between atoms: _374  and  _375
REMARK  165  A    between atoms: _375  and  _376
REMARK  166  A    between atoms: _385  and  _387
REMARK  167  A    between atoms: _387  and  _388
REMARK  168  A    between atoms: _387  and  _390
REMARK  169  A    between atoms: _390  and  _391
REMARK  170  A    between atoms: _391  and  _392
REMARK  171  A    between atoms: _395  and  _397
REMARK  172  A    between atoms: _397  and  _398
REMARK  173  A    between atoms: _397  and  _400
REMARK  174  A    between atoms: _400  and  _401
REMARK  175  A    between atoms: _404  and  _406
REMARK  176  A    between atoms: _406  and  _407
REMARK  177  A    between atoms: _410  and  _412
REMARK  178  A    between atoms: _412  and  _413
REMARK  179  A    between atoms: _412  and  _415
REMARK  180  A    between atoms: _415  and  _416
REMARK  181  A    between atoms: _419  and  _421
REMARK  182  A    between atoms: _421  and  _422
REMARK  183  A    between atoms: _421  and  _424
REMARK  184  A    between atoms: _424  and  _425
REMARK  185  A    between atoms: _425  and  _426
REMARK  186  A    between atoms: _426  and  _427
REMARK  187  A    between atoms: _436  and  _438
REMARK  188  A    between atoms: _438  and  _439
REMARK  189  A    between atoms: _438  and  _441
REMARK  190  A    between atoms: _441  and  _442
REMARK  191  A    between atoms: _447  and  _449
REMARK  192  A    between atoms: _449  and  _450
REMARK  193  A    between atoms: _449  and  _452
REMARK  194  A    between atoms: _452  and  _453
REMARK  195  A    between atoms: _456  and  _458
REMARK  196  A    between atoms: _458  and  _459
REMARK  197  A    between atoms: _458  and  _461
REMARK  198  A    between atoms: _461  and  _462
REMARK  199  A    between atoms: _465  and  _467
REMARK  200  A    between atoms: _467  and  _468
REMARK  201  A    between atoms: _467  and  _470
REMARK  202  A    between atoms: _473  and  _475
REMARK  203  A    between atoms: _475  and  _476
REMARK  204  A    between atoms: _475  and  _478
REMARK  205  A    between atoms: _478  and  _479
REMARK  206  A    between atoms: _479  and  _480
REMARK  207  A    between atoms: _483  and  _485
REMARK  208  A    between atoms: _485  and  _486
REMARK  209  A    between atoms: _485  and  _488
REMARK  210  A    between atoms: _488  and  _489
REMARK  211  A    between atoms: _489  and  _490
REMARK  212  A    between atoms: _490  and  _491
REMARK  213  A    between atoms: _491  and  _492
REMARK  214  A    between atoms: _496  and  _498
REMARK  215  A    between atoms: _498  and  _499
REMARK  216  A    between atoms: _498  and  _501
REMARK  217  A    between atoms: _501  and  _502
REMARK  218  A    between atoms: _505  and  _507
REMARK  219  A    between atoms: _507  and  _508
REMARK  220  A    between atoms: _510  and  _512
REMARK  221  A    between atoms: _512  and  _513
REMARK  222  A    between atoms: _512  and  _515
REMARK  223  A    between atoms: _515  and  _516
REMARK  224  A    between atoms: _519  and  _521
REMARK  225  A    between atoms: _521  and  _522
REMARK  226  A    between atoms: _521  and  _524
REMARK  227  A    between atoms: _524  and  _525
REMARK  228  A    between atoms: _531  and  _533
REMARK  229  A    between atoms: _533  and  _534
REMARK  230  A    between atoms: _536  and  _538
REMARK  231  A    between atoms: _538  and  _539
REMARK  232  A    between atoms: _538  and  _541
REMARK  233  A    between atoms: _541  and  _542
REMARK                            x       y       z     vdW  Elec       q    Type
REMARK                         _______ _______ _______ _____ _____    ______ ____
ROOT
ATOM      1  O   HOH     1      12.004  27.493   4.415  0.00  0.00    +0.000 OA
ENDROOT
TORSDOF 0
REMARK  Name = ../refined-set-2016/4e6q/4e6q_pocket.pdb
REMARK  233 active torsions:
REMARK  status: ('A' for Active; 'I' for Inactive)
REMARK    1  A    between atoms: _1  and  _3
REMARK    2  A    between atoms: _3  and  _4
REMARK    3  A    between atoms: _3  and  _6
REMARK    4  A    between atoms: _6  and  _7
REMARK    5  A    between atoms: _7  and  _8
REMARK    6  A    between atoms: _8  and  _9
REMARK    7  A    between atoms: _18  and  _20
REMARK    8  A    between atoms: _20  and  _21
REMARK    9  A    between atoms: _20  and  _23
REMARK   10  A    between atoms: _23  and  _24
REMARK   11  A    between atoms: _24  and  _25
REMARK   12  A    between atoms: _30  and  _32
REMARK   13  A    between atoms: _32  and  _33
REMARK   14  A    between atoms: _32  and  _35
REMARK   15  A    between atoms: _35  and  _36
REMARK   16  A    between atoms: _39  and  _41
REMARK   17  A    between atoms: _41  and  _42
REMARK   18  A    between atoms: _44  and  _46
REMARK   19  A    between atoms: _46  and  _47
REMARK   20  A    between atoms: _46  and  _49
REMARK   21  A    between atoms: _49  and  _50
REMARK   22  A    between atoms: _50  and  _51
REMARK   23  A    between atoms: _51  and  _52
REMARK   24  A    between atoms: _52  and  _53
REMARK   25  A    between atoms: _57  and  _59
REMARK   26  A    between atoms: _59  and  _60
REMARK   27  A    between atoms: _62  and  _64
REMARK   28  A    between atoms: _64  and  _65
REMARK   29  A    between atoms: _64  and  _67
REMARK   30  A    between atoms: _67  and  _68
REMARK   31  A    between atoms: _73  and  _75
REMARK   32  A    between atoms: _75  and  _76
REMARK   33  A    between atoms: _75  and  _78
REMARK   34  A    between atoms: _78  and  _79
REMARK   35  A    between atoms: _85  and  _87
REMARK   36  A    between atoms: _87  and  _88
REMARK   37  A    between atoms: _90  and  _92
REMARK   38  A    between atoms: _92  and  _93
REMARK   39  A    between atoms: _92  and  _95
REMARK   40  A    between atoms: _95  and  _96
REMARK   41  A    between atoms: _98  and  _100
REMARK   42  A    between atoms: _100  and  _101
REMARK   43  A    between atoms: _100  and  _103
REMARK   44  A    between atoms: _106  and  _108
REMARK   45  A    between atoms: _108  and  _109
REMARK   46  A    between atoms: _108  and  _111
REMARK   47  A    between atoms: _111  and  _112
REMARK   48  A    between atoms: _112  and  _113
REMARK   49  A    between atoms: _116  and  _118
REMARK   50  A    between atoms: _118  and  _119
REMARK   51  A    between atoms: _118  and  _121
REMARK   52  A    between atoms: _121  and  _122
REMARK   53  A    between atoms: _122  and  _123
REMARK   54  A    between atoms: _125  and  _127
REMARK   55  A    between atoms: _127  and  _128
REMARK   56  A    between atoms: _127  and  _130
REMARK   57  A    between atoms: _133  and  _135
REMARK   58  A    between atoms: _135  and  _136
REMARK   59  A    between atoms: _135  and  _138
REMARK   60  A    between atoms: _141  and  _143
REMARK   61  A    between atoms: _143  and  _144
REMARK   62  A    between atoms: _147  and  _149
REMARK   63  A    between atoms: _149  and  _150
REMARK   64  A    between atoms: _149  and  _152
REMARK   65  A    between atoms: _155  and  _157
REMARK   66  A    between atoms: _157  and  _158
REMARK   67  A    between atoms: _157  and  _160
REMARK   68  A    between atoms: _160  and  _161
REMARK   69  A    between atoms: _161  and  _162
REMARK   70  A    between atoms: _162  and  _163
REMARK   71  A    between atoms: _163  and  _164
REMARK   72  A    between atoms: _168  and  _170
REMARK   73  A    between atoms: _170  and  _171
REMARK   74  A    between atoms: _170  and  _173
REMARK   75  A    between atoms: _173  and  _174
REMARK   76  A    between atoms: _174  and  _175
REMARK   77  A    between atoms: _175  and  _176
REMARK   78  A    between atoms: _176  and  _177
REMARK   79  A    between atoms: _181  and  _183
REMARK   80  A    between atoms: _183  and  _184
REMARK   81  A    between atoms: _183  and  _186
REMARK   82  A    between atoms: _186  and  _187
REMARK   83  A    between atoms: _190  and  _192
REMARK   84  A    between atoms: _192  and  _193
REMARK   85  A    between atoms: _192  and  _195
REMARK   86  A    between atoms: _195  and  _196
REMARK   87  A    between atoms: _196  and  _197
REMARK   88  A    between atoms: _202  and  _204
REMARK   89  A    between atoms: _204  and  _205
REMARK   90  A    between atoms: _204  and  _207
REMARK   91  A    between atoms: _207  and  _208
REMARK   92  A    between atoms: _214  and  _216
REMARK   93  A    between atoms: _216  and  _217
REMARK   94  A    between atoms: _216  and  _219
REMARK   95  A    between atoms: _219  and  _220
REMARK   96  A    between atoms: _220  and  _221
REMARK   97  A    between atoms: _224  and  _226
REMARK   98  A    between atoms: _226  and  _227
REMARK   99  A    between atoms: _226  and  _229
REMARK  100  A    between atoms: _229  and  _230
REMARK  101  A    between atoms: _233  and  _235
REMARK  102  A    between atoms: _235  and  _236
REMARK  103  A    between atoms: _235  and  _238
REMARK  104  A    between atoms: _241  and  _243
REMARK  105  A    between atoms: _243  and  _244
REMARK  106  A    between atoms: _243  and  _246
REMARK  107  A    between atoms: _246  and  _247
REMARK  108  A    between atoms: _247  and  _248
REMARK  109  A    between atoms: _248  and  _249
REMARK  110  A    between atoms: _249  and  _250
REMARK  111  A    between atoms: _254  and  _256
REMARK  112  A    between atoms: _256  and  _257
REMARK  113  A    between atoms: _256  and  _259
REMARK  114  A    between atoms: _259  and  _260
REMARK  115  A    between atoms: _260  and  _261
REMARK  116  A    between atoms: _261  and  _262
REMARK  117  A    between atoms: _262  and  _263
REMARK  118  A    between atoms: _267  and  _269
REMARK  119  A    between atoms: _269  and  _270
REMARK  120  A    between atoms: _269  and  _272
REMARK  121  A    between atoms: _272  and  _273
REMARK  122  A    between atoms: _276  and  _278
REMARK  123  A    between atoms: _278  and  _279
REMARK  124  A    between atoms: _278  and  _281
REMARK  125  A    between atoms: _281  and  _282
REMARK  126  A    between atoms: _285  and  _287
REMARK  127  A    between atoms: _287  and  _288
REMARK  128  A    between atoms: _287  and  _290
REMARK  129  A    between atoms: _290  and  _291
REMARK  130  A    between atoms: _291  and  _292
REMARK  131  A    between atoms: _294  and  _296
REMARK  132  A    between atoms: _296  and  _297
REMARK  133  A    between atoms: _296  and  _299
REMARK  134  A    between atoms: _299  and  _300
REMARK  135  A    between atoms: _300  and  _301
REMARK  136  A    between atoms: _304  and  _306
REMARK  137  A    between atoms: _306  and  _307
REMARK  138  A    between atoms: _306  and  _309
REMARK  139  A    between atoms: _309  and  _310
REMARK  140  A    between atoms: _316  and  _318
REMARK  141  A    between atoms: _318  and  _319
REMARK  142  A    between atoms: _318  and  _321
REMARK  143  A    between atoms: _321  and  _322
REMARK  144  A    between atoms: _326  and  _327
REMARK  145  A    between atoms: _332  and  _334
REMARK  146  A    between atoms: _334  and  _335
REMARK  147  A    between atoms: _334  and  _337
REMARK  148  A    between atoms: _337  and  _338
REMARK  149  A    between atoms: _343  and  _344
REMARK  150  A    between atoms: _346  and  _348
REMARK  151  A    between atoms: _348  and  _349
REMARK  152  A    between atoms: _351  and  _353
REMARK  153  A    between atoms: _353  and  _354
REMARK  154  A    between atoms: _353  and  _356
REMARK  155  A    between atoms: _356  and  _357
REMARK  156  A    between atoms: _359  and  _361
REMARK  157  A    between atoms: _361  and  _362
REMARK  158  A    between atoms: _361  and  _364
REMARK  159  A    between atoms: _364  and  _365
REMARK  160  A    between atoms: _368  and  _370
REMARK  161  A    between atoms: _370  and  _371
REMARK  162  A    between atoms: _370  and  _373
REMARK  163  A    between atoms: _373  and  _374
REMARK  164  A    between atoms: _374  and  _375
REMARK  165  A    between atoms: _375  and  _376
REMARK  166  A    between atoms: _385  and  _387
REMARK  167  A    between atoms: _387  and  _388
REMARK  168  A    between atoms: _387  and  _390
REMARK  169  A    between atoms: _390  and  _391
REMARK  170  A    between atoms: _391  and  _392
REMARK  171  A    between atoms: _395  and  _397
REMARK  172  A    between atoms: _397  and  _398
REMARK  173  A    between atoms: _397  and  _400
REMARK  174  A    between atoms: _400  and  _401
REMARK  175  A    between atoms: _404  and  _406
REMARK  176  A    between atoms: _406  and  _407
REMARK  177  A    between atoms: _410  and  _412
REMARK  178  A    between atoms: _412  and  _413
REMARK  179  A    between atoms: _412  and  _415
REMARK  180  A    between atoms: _415  and  _416
REMARK  181  A    between atoms: _419  and  _421
REMARK  182  A    between atoms: _421  and  _422
REMARK  183  A    between atoms: _421  and  _424
REMARK  184  A    between atoms: _424  and  _425
REMARK  185  A    between atoms: _425  and  _426
REMARK  186  A    between atoms: _426  and  _427
REMARK  187  A    between atoms: _436  and  _438
REMARK  188  A    between atoms: _438  and  _439
REMARK  189  A    between atoms: _438  and  _441
REMARK  190  A    between atoms: _441  and  _442
REMARK  191  A    between atoms: _447  and  _449
REMARK  192  A    between atoms: _449  and  _450
REMARK  193  A    between atoms: _449  and  _452
REMARK  194  A    between atoms: _452  and  _453
REMARK  195  A    between atoms: _456  and  _458
REMARK  196  A    between atoms: _458  and  _459
REMARK  197  A    between atoms: _458  and  _461
REMARK  198  A    between atoms: _461  and  _462
REMARK  199  A    between atoms: _465  and  _467
REMARK  200  A    between atoms: _467  and  _468
REMARK  201  A    between atoms: _467  and  _470
REMARK  202  A    between atoms: _473  and  _475
REMARK  203  A    between atoms: _475  and  _476
REMARK  204  A    between atoms: _475  and  _478
REMARK  205  A    between atoms: _478  and  _479
REMARK  206  A    between atoms: _479  and  _480
REMARK  207  A    between atoms: _483  and  _485
REMARK  208  A    between atoms: _485  and  _486
REMARK  209  A    between atoms: _485  and  _488
REMARK  210  A    between atoms: _488  and  _489
REMARK  211  A    between atoms: _489  and  _490
REMARK  212  A    between atoms: _490  and  _491
REMARK  213  A    between atoms: _491  and  _492
REMARK  214  A    between atoms: _496  and  _498
REMARK  215  A    between atoms: _498  and  _499
REMARK  216  A    between atoms: _498  and  _501
REMARK  217  A    between atoms: _501  and  _502
REMARK  218  A    between atoms: _505  and  _507
REMARK  219  A    between atoms: _507  and  _508
REMARK  220  A    between atoms: _510  and  _512
REMARK  221  A    between atoms: _512  and  _513
REMARK  222  A    between atoms: _512  and  _515
REMARK  223  A    between atoms: _515  and  _516
REMARK  224  A    between atoms: _519  and  _521
REMARK  225  A    between atoms: _521  and  _522
REMARK  226  A    between atoms: _521  and  _524
REMARK  227  A    between atoms: _524  and  _525
REMARK  228  A    between atoms: _531  and  _533
REMARK  229  A    between atoms: _533  and  _534
REMARK  230  A    between atoms: _536  and  _538
REMARK  231  A    between atoms: _538  and  _539
REMARK  232  A    between atoms: _538  and  _541
REMARK  233  A    between atoms: _541  and  _542
REMARK                            x       y       z     vdW  Elec       q    Type
REMARK                         _______ _______ _______ _____ _____    ______ ____
ROOT
ATOM      1  O   HOH     1       6.323  16.064   8.925  0.00  0.00    +0.000 OA
ENDROOT
TORSDOF 0
