REMARK  Name = ../refined-set-2016/4x6m/4x6m_pocket.pdb
REMARK  231 active torsions:
REMARK  status: ('A' for Active; 'I' for Inactive)
REMARK    1  A    between atoms: _1  and  _5
REMARK    2  A    between atoms: _5  and  _6
REMARK    3  A    between atoms: _5  and  _8
REMARK    4  A    between atoms: _8  and  _9
REMARK    5  A    between atoms: _12  and  _14
REMARK    6  A    between atoms: _14  and  _15
REMARK    7  A    between atoms: _14  and  _17
REMARK    8  A    between atoms: _20  and  _22
REMARK    9  A    between atoms: _22  and  _23
REMARK   10  A    between atoms: _22  and  _25
REMARK   11  A    between atoms: _25  and  _26
REMARK   12  A    between atoms: _29  and  _31
REMARK   13  A    between atoms: _31  and  _32
REMARK   14  A    between atoms: _31  and  _34
REMARK   15  A    between atoms: _34  and  _35
REMARK   16  A    between atoms: _40  and  _42
REMARK   17  A    between atoms: _42  and  _43
REMARK   18  A    between atoms: _42  and  _45
REMARK   19  A    between atoms: _45  and  _46
REMARK   20  A    between atoms: _49  and  _51
REMARK   21  A    between atoms: _51  and  _52
REMARK   22  A    between atoms: _51  and  _54
REMARK   23  A    between atoms: _54  and  _55
REMARK   24  A    between atoms: _58  and  _60
REMARK   25  A    between atoms: _60  and  _61
REMARK   26  A    between atoms: _60  and  _63
REMARK   27  A    between atoms: _63  and  _64
REMARK   28  A    between atoms: _64  and  _65
REMARK   29  A    between atoms: _70  and  _72
REMARK   30  A    between atoms: _72  and  _73
REMARK   31  A    between atoms: _72  and  _75
REMARK   32  A    between atoms: _75  and  _76
REMARK   33  A    between atoms: _76  and  _77
REMARK   34  A    between atoms: _77  and  _78
REMARK   35  A    between atoms: _87  and  _89
REMARK   36  A    between atoms: _89  and  _90
REMARK   37  A    between atoms: _89  and  _92
REMARK   38  A    between atoms: _92  and  _93
REMARK   39  A    between atoms: _98  and  _100
REMARK   40  A    between atoms: _100  and  _101
REMARK   41  A    between atoms: _100  and  _103
REMARK   42  A    between atoms: _103  and  _104
REMARK   43  A    between atoms: _107  and  _109
REMARK   44  A    between atoms: _109  and  _110
REMARK   45  A    between atoms: _109  and  _112
REMARK   46  A    between atoms: _112  and  _113
REMARK   47  A    between atoms: _113  and  _148
REMARK   48  A    between atoms: _114  and  _116
REMARK   49  A    between atoms: _116  and  _117
REMARK   50  A    between atoms: _119  and  _121
REMARK   51  A    between atoms: _121  and  _122
REMARK   52  A    between atoms: _125  and  _127
REMARK   53  A    between atoms: _127  and  _128
REMARK   54  A    between atoms: _131  and  _133
REMARK   55  A    between atoms: _133  and  _134
REMARK   56  A    between atoms: _133  and  _136
REMARK   57  A    between atoms: _136  and  _137
REMARK   58  A    between atoms: _142  and  _144
REMARK   59  A    between atoms: _144  and  _145
REMARK   60  A    between atoms: _144  and  _147
REMARK   61  A    between atoms: _147  and  _148
REMARK   62  A    between atoms: _149  and  _151
REMARK   63  A    between atoms: _151  and  _152
REMARK   64  A    between atoms: _151  and  _154
REMARK   65  A    between atoms: _154  and  _155
REMARK   66  A    between atoms: _161  and  _163
REMARK   67  A    between atoms: _163  and  _164
REMARK   68  A    between atoms: _163  and  _166
REMARK   69  A    between atoms: _166  and  _167
REMARK   70  A    between atoms: _172  and  _173
REMARK   71  A    between atoms: _175  and  _177
REMARK   72  A    between atoms: _177  and  _178
REMARK   73  A    between atoms: _177  and  _180
REMARK   74  A    between atoms: _183  and  _185
REMARK   75  A    between atoms: _185  and  _186
REMARK   76  A    between atoms: _189  and  _191
REMARK   77  A    between atoms: _191  and  _192
REMARK   78  A    between atoms: _191  and  _194
REMARK   79  A    between atoms: _194  and  _195
REMARK   80  A    between atoms: _198  and  _200
REMARK   81  A    between atoms: _200  and  _201
REMARK   82  A    between atoms: _200  and  _203
REMARK   83  A    between atoms: _206  and  _208
REMARK   84  A    between atoms: _208  and  _209
REMARK   85  A    between atoms: _208  and  _211
REMARK   86  A    between atoms: _211  and  _212
REMARK   87  A    between atoms: _222  and  _224
REMARK   88  A    between atoms: _224  and  _225
REMARK   89  A    between atoms: _227  and  _229
REMARK   90  A    between atoms: _229  and  _230
REMARK   91  A    between atoms: _229  and  _232
REMARK   92  A    between atoms: _232  and  _233
REMARK   93  A    between atoms: _238  and  _239
REMARK   94  A    between atoms: _241  and  _243
REMARK   95  A    between atoms: _243  and  _244
REMARK   96  A    between atoms: _243  and  _246
REMARK   97  A    between atoms: _246  and  _247
REMARK   98  A    between atoms: _250  and  _252
REMARK   99  A    between atoms: _252  and  _253
REMARK  100  A    between atoms: _252  and  _255
REMARK  101  A    between atoms: _255  and  _256
REMARK  102  A    between atoms: _259  and  _261
REMARK  103  A    between atoms: _261  and  _262
REMARK  104  A    between atoms: _261  and  _264
REMARK  105  A    between atoms: _264  and  _265
REMARK  106  A    between atoms: _265  and  _266
REMARK  107  A    between atoms: _266  and  _267
REMARK  108  A    between atoms: _267  and  _268
REMARK  109  A    between atoms: _272  and  _274
REMARK  110  A    between atoms: _274  and  _275
REMARK  111  A    between atoms: _274  and  _277
REMARK  112  A    between atoms: _277  and  _278
REMARK  113  A    between atoms: _281  and  _283
REMARK  114  A    between atoms: _283  and  _284
REMARK  115  A    between atoms: _283  and  _286
REMARK  116  A    between atoms: _286  and  _287
REMARK  117  A    between atoms: _287  and  _288
REMARK  118  A    between atoms: _293  and  _295
REMARK  119  A    between atoms: _295  and  _296
REMARK  120  A    between atoms: _295  and  _298
REMARK  121  A    between atoms: _298  and  _299
REMARK  122  A    between atoms: _304  and  _305
REMARK  123  A    between atoms: _307  and  _309
REMARK  124  A    between atoms: _309  and  _310
REMARK  125  A    between atoms: _309  and  _312
REMARK  126  A    between atoms: _312  and  _313
REMARK  127  A    between atoms: _316  and  _318
REMARK  128  A    between atoms: _318  and  _319
REMARK  129  A    between atoms: _318  and  _321
REMARK  130  A    between atoms: _323  and  _325
REMARK  131  A    between atoms: _325  and  _326
REMARK  132  A    between atoms: _329  and  _331
REMARK  133  A    between atoms: _331  and  _332
REMARK  134  A    between atoms: _331  and  _334
REMARK  135  A    between atoms: _334  and  _335
REMARK  136  A    between atoms: _335  and  _336
REMARK  137  A    between atoms: _336  and  _337
REMARK  138  A    between atoms: _337  and  _338
REMARK  139  A    between atoms: _342  and  _344
REMARK  140  A    between atoms: _344  and  _345
REMARK  141  A    between atoms: _344  and  _347
REMARK  142  A    between atoms: _347  and  _348
REMARK  143  A    between atoms: _351  and  _353
REMARK  144  A    between atoms: _353  and  _354
REMARK  145  A    between atoms: _357  and  _359
REMARK  146  A    between atoms: _359  and  _360
REMARK  147  A    between atoms: _359  and  _362
REMARK  148  A    between atoms: _362  and  _363
REMARK  149  A    between atoms: _363  and  _486
REMARK  150  A    between atoms: _364  and  _366
REMARK  151  A    between atoms: _366  and  _367
REMARK  152  A    between atoms: _366  and  _369
REMARK  153  A    between atoms: _369  and  _370
REMARK  154  A    between atoms: _370  and  _371
REMARK  155  A    between atoms: _371  and  _372
REMARK  156  A    between atoms: _372  and  _373
REMARK  157  A    between atoms: _377  and  _379
REMARK  158  A    between atoms: _379  and  _380
REMARK  159  A    between atoms: _382  and  _384
REMARK  160  A    between atoms: _384  and  _385
REMARK  161  A    between atoms: _384  and  _387
REMARK  162  A    between atoms: _387  and  _388
REMARK  163  A    between atoms: _391  and  _393
REMARK  164  A    between atoms: _393  and  _394
REMARK  165  A    between atoms: _393  and  _396
REMARK  166  A    between atoms: _396  and  _397
REMARK  167  A    between atoms: _399  and  _401
REMARK  168  A    between atoms: _401  and  _402
REMARK  169  A    between atoms: _404  and  _406
REMARK  170  A    between atoms: _406  and  _407
REMARK  171  A    between atoms: _409  and  _411
REMARK  172  A    between atoms: _411  and  _412
REMARK  173  A    between atoms: _411  and  _414
REMARK  174  A    between atoms: _414  and  _415
REMARK  175  A    between atoms: _418  and  _420
REMARK  176  A    between atoms: _420  and  _421
REMARK  177  A    between atoms: _420  and  _423
REMARK  178  A    between atoms: _423  and  _424
REMARK  179  A    between atoms: _427  and  _429
REMARK  180  A    between atoms: _429  and  _430
REMARK  181  A    between atoms: _429  and  _432
REMARK  182  A    between atoms: _432  and  _433
REMARK  183  A    between atoms: _436  and  _438
REMARK  184  A    between atoms: _438  and  _439
REMARK  185  A    between atoms: _438  and  _441
REMARK  186  A    between atoms: _441  and  _442
REMARK  187  A    between atoms: _444  and  _446
REMARK  188  A    between atoms: _446  and  _447
REMARK  189  A    between atoms: _446  and  _449
REMARK  190  A    between atoms: _449  and  _450
REMARK  191  A    between atoms: _460  and  _462
REMARK  192  A    between atoms: _462  and  _463
REMARK  193  A    between atoms: _465  and  _467
REMARK  194  A    between atoms: _467  and  _468
REMARK  195  A    between atoms: _467  and  _470
REMARK  196  A    between atoms: _470  and  _471
REMARK  197  A    between atoms: _471  and  _472
REMARK  198  A    between atoms: _475  and  _477
REMARK  199  A    between atoms: _477  and  _478
REMARK  200  A    between atoms: _480  and  _482
REMARK  201  A    between atoms: _482  and  _483
REMARK  202  A    between atoms: _482  and  _485
REMARK  203  A    between atoms: _485  and  _486
REMARK  204  A    between atoms: _487  and  _489
REMARK  205  A    between atoms: _489  and  _490
REMARK  206  A    between atoms: _493  and  _495
REMARK  207  A    between atoms: _495  and  _496
REMARK  208  A    between atoms: _495  and  _498
REMARK  209  A    between atoms: _498  and  _499
REMARK  210  A    between atoms: _499  and  _500
REMARK  211  A    between atoms: _505  and  _507
REMARK  212  A    between atoms: _507  and  _508
REMARK  213  A    between atoms: _507  and  _510
REMARK  214  A    between atoms: _510  and  _511
REMARK  215  A    between atoms: _511  and  _512
REMARK  216  A    between atoms: _512  and  _513
REMARK  217  A    between atoms: _523  and  _524
REMARK  218  A    between atoms: _529  and  _531
REMARK  219  A    between atoms: _531  and  _532
REMARK  220  A    between atoms: _534  and  _536
REMARK  221  A    between atoms: _536  and  _537
REMARK  222  A    between atoms: _536  and  _539
REMARK  223  A    between atoms: _542  and  _544
REMARK  224  A    between atoms: _544  and  _545
REMARK  225  A    between atoms: _544  and  _547
REMARK  226  A    between atoms: _547  and  _548
REMARK  227  A    between atoms: _553  and  _554
REMARK  228  A    between atoms: _556  and  _558
REMARK  229  A    between atoms: _558  and  _559
REMARK  230  A    between atoms: _558  and  _561
REMARK  231  A    between atoms: _561  and  _562
REMARK                            x       y       z     vdW  Elec       q    Type
REMARK                         _______ _______ _______ _____ _____    ______ ____
ROOT
ATOM      1  C   ILE A   1      42.176  -9.224  33.573  0.00  0.00    +0.202 C 
ATOM      2  O   ILE A   1      43.301  -8.890  33.978  0.00  0.00    -0.277 OA
ATOM      3  N   VAL A   2      41.533  -8.583  32.605  0.00  0.00    -0.301 N 
ATOM      4  H   VAL A   2      40.609  -8.945  32.294  0.00  0.00    +0.150 HD
ENDROOT
BRANCH   1   5
ATOM      5  CA  ILE A   1      41.427 -10.400  34.218  0.00  0.00    +0.013 C 
BRANCH   5   6
ATOM      6  N   ILE A   1      42.256 -11.609  34.199  0.00  0.00    +0.387 N 
ATOM      7  H1  ILE A   1      43.133 -11.435  34.730  0.00  0.00    -0.089 HD
ATOM      8  H2  ILE A   1      41.733 -12.393  34.639  0.00  0.00    -0.089 HD
ATOM      9  H3  ILE A   1      42.487 -11.854  33.215  0.00  0.00    -0.089 HD
ENDBRANCH   5   6
BRANCH   5  10
ATOM     10  CB  ILE A   1      40.913 -10.028  35.668  0.00  0.00    -0.011 C 
ATOM     11  CG2 ILE A   1      40.045  -8.713  35.674  0.00  0.00    -0.002 C 
BRANCH  10  12
ATOM     12  CG1 ILE A   1      40.166 -11.208  36.372  0.00  0.00    -0.002 C 
ATOM     13  CD1 ILE A   1      38.781 -11.659  35.753  0.00  0.00    -0.000 C 
ENDBRANCH  10  12
ENDBRANCH   5  10
ENDBRANCH   1   5
BRANCH   3  14
ATOM     14  CA  VAL A   2      42.076  -7.381  31.956  0.00  0.00    +0.137 C 
BRANCH  14  15
ATOM     15  CB  VAL A   2      41.796  -7.332  30.416  0.00  0.00    +0.026 C 
ATOM     16  CG2 VAL A   2      42.437  -6.088  29.774  0.00  0.00    +0.002 C 
ATOM     17  CG1 VAL A   2      42.265  -8.604  29.719  0.00  0.00    +0.002 C 
ENDBRANCH  14  15
BRANCH  14  18
ATOM     18  C   VAL A   2      41.495  -6.142  32.682  0.00  0.00    +0.227 C 
ATOM     19  O   VAL A   2      40.301  -6.115  32.978  0.00  0.00    -0.286 OA
ENDBRANCH  14  18
ENDBRANCH   3  14
TORSDOF 7
REMARK  Name = ../refined-set-2016/4x6m/4x6m_pocket.pdb
REMARK  231 active torsions:
REMARK  status: ('A' for Active; 'I' for Inactive)
REMARK    1  A    between atoms: _1  and  _5
REMARK    2  A    between atoms: _5  and  _6
REMARK    3  A    between atoms: _5  and  _8
REMARK    4  A    between atoms: _8  and  _9
REMARK    5  A    between atoms: _12  and  _14
REMARK    6  A    between atoms: _14  and  _15
REMARK    7  A    between atoms: _14  and  _17
REMARK    8  A    between atoms: _20  and  _22
REMARK    9  A    between atoms: _22  and  _23
REMARK   10  A    between atoms: _22  and  _25
REMARK   11  A    between atoms: _25  and  _26
REMARK   12  A    between atoms: _29  and  _31
REMARK   13  A    between atoms: _31  and  _32
REMARK   14  A    between atoms: _31  and  _34
REMARK   15  A    between atoms: _34  and  _35
REMARK   16  A    between atoms: _40  and  _42
REMARK   17  A    between atoms: _42  and  _43
REMARK   18  A    between atoms: _42  and  _45
REMARK   19  A    between atoms: _45  and  _46
REMARK   20  A    between atoms: _49  and  _51
REMARK   21  A    between atoms: _51  and  _52
REMARK   22  A    between atoms: _51  and  _54
REMARK   23  A    between atoms: _54  and  _55
REMARK   24  A    between atoms: _58  and  _60
REMARK   25  A    between atoms: _60  and  _61
REMARK   26  A    between atoms: _60  and  _63
REMARK   27  A    between atoms: _63  and  _64
REMARK   28  A    between atoms: _64  and  _65
REMARK   29  A    between atoms: _70  and  _72
REMARK   30  A    between atoms: _72  and  _73
REMARK   31  A    between atoms: _72  and  _75
REMARK   32  A    between atoms: _75  and  _76
REMARK   33  A    between atoms: _76  and  _77
REMARK   34  A    between atoms: _77  and  _78
REMARK   35  A    between atoms: _87  and  _89
REMARK   36  A    between atoms: _89  and  _90
REMARK   37  A    between atoms: _89  and  _92
REMARK   38  A    between atoms: _92  and  _93
REMARK   39  A    between atoms: _98  and  _100
REMARK   40  A    between atoms: _100  and  _101
REMARK   41  A    between atoms: _100  and  _103
REMARK   42  A    between atoms: _103  and  _104
REMARK   43  A    between atoms: _107  and  _109
REMARK   44  A    between atoms: _109  and  _110
REMARK   45  A    between atoms: _109  and  _112
REMARK   46  A    between atoms: _112  and  _113
REMARK   47  A    between atoms: _113  and  _148
REMARK   48  A    between atoms: _114  and  _116
REMARK   49  A    between atoms: _116  and  _117
REMARK   50  A    between atoms: _119  and  _121
REMARK   51  A    between atoms: _121  and  _122
REMARK   52  A    between atoms: _125  and  _127
REMARK   53  A    between atoms: _127  and  _128
REMARK   54  A    between atoms: _131  and  _133
REMARK   55  A    between atoms: _133  and  _134
REMARK   56  A    between atoms: _133  and  _136
REMARK   57  A    between atoms: _136  and  _137
REMARK   58  A    between atoms: _142  and  _144
REMARK   59  A    between atoms: _144  and  _145
REMARK   60  A    between atoms: _144  and  _147
REMARK   61  A    between atoms: _147  and  _148
REMARK   62  A    between atoms: _149  and  _151
REMARK   63  A    between atoms: _151  and  _152
REMARK   64  A    between atoms: _151  and  _154
REMARK   65  A    between atoms: _154  and  _155
REMARK   66  A    between atoms: _161  and  _163
REMARK   67  A    between atoms: _163  and  _164
REMARK   68  A    between atoms: _163  and  _166
REMARK   69  A    between atoms: _166  and  _167
REMARK   70  A    between atoms: _172  and  _173
REMARK   71  A    between atoms: _175  and  _177
REMARK   72  A    between atoms: _177  and  _178
REMARK   73  A    between atoms: _177  and  _180
REMARK   74  A    between atoms: _183  and  _185
REMARK   75  A    between atoms: _185  and  _186
REMARK   76  A    between atoms: _189  and  _191
REMARK   77  A    between atoms: _191  and  _192
REMARK   78  A    between atoms: _191  and  _194
REMARK   79  A    between atoms: _194  and  _195
REMARK   80  A    between atoms: _198  and  _200
REMARK   81  A    between atoms: _200  and  _201
REMARK   82  A    between atoms: _200  and  _203
REMARK   83  A    between atoms: _206  and  _208
REMARK   84  A    between atoms: _208  and  _209
REMARK   85  A    between atoms: _208  and  _211
REMARK   86  A    between atoms: _211  and  _212
REMARK   87  A    between atoms: _222  and  _224
REMARK   88  A    between atoms: _224  and  _225
REMARK   89  A    between atoms: _227  and  _229
REMARK   90  A    between atoms: _229  and  _230
REMARK   91  A    between atoms: _229  and  _232
REMARK   92  A    between atoms: _232  and  _233
REMARK   93  A    between atoms: _238  and  _239
REMARK   94  A    between atoms: _241  and  _243
REMARK   95  A    between atoms: _243  and  _244
REMARK   96  A    between atoms: _243  and  _246
REMARK   97  A    between atoms: _246  and  _247
REMARK   98  A    between atoms: _250  and  _252
REMARK   99  A    between atoms: _252  and  _253
REMARK  100  A    between atoms: _252  and  _255
REMARK  101  A    between atoms: _255  and  _256
REMARK  102  A    between atoms: _259  and  _261
REMARK  103  A    between atoms: _261  and  _262
REMARK  104  A    between atoms: _261  and  _264
REMARK  105  A    between atoms: _264  and  _265
REMARK  106  A    between atoms: _265  and  _266
REMARK  107  A    between atoms: _266  and  _267
REMARK  108  A    between atoms: _267  and  _268
REMARK  109  A    between atoms: _272  and  _274
REMARK  110  A    between atoms: _274  and  _275
REMARK  111  A    between atoms: _274  and  _277
REMARK  112  A    between atoms: _277  and  _278
REMARK  113  A    between atoms: _281  and  _283
REMARK  114  A    between atoms: _283  and  _284
REMARK  115  A    between atoms: _283  and  _286
REMARK  116  A    between atoms: _286  and  _287
REMARK  117  A    between atoms: _287  and  _288
REMARK  118  A    between atoms: _293  and  _295
REMARK  119  A    between atoms: _295  and  _296
REMARK  120  A    between atoms: _295  and  _298
REMARK  121  A    between atoms: _298  and  _299
REMARK  122  A    between atoms: _304  and  _305
REMARK  123  A    between atoms: _307  and  _309
REMARK  124  A    between atoms: _309  and  _310
REMARK  125  A    between atoms: _309  and  _312
REMARK  126  A    between atoms: _312  and  _313
REMARK  127  A    between atoms: _316  and  _318
REMARK  128  A    between atoms: _318  and  _319
REMARK  129  A    between atoms: _318  and  _321
REMARK  130  A    between atoms: _323  and  _325
REMARK  131  A    between atoms: _325  and  _326
REMARK  132  A    between atoms: _329  and  _331
REMARK  133  A    between atoms: _331  and  _332
REMARK  134  A    between atoms: _331  and  _334
REMARK  135  A    between atoms: _334  and  _335
REMARK  136  A    between atoms: _335  and  _336
REMARK  137  A    between atoms: _336  and  _337
REMARK  138  A    between atoms: _337  and  _338
REMARK  139  A    between atoms: _342  and  _344
REMARK  140  A    between atoms: _344  and  _345
REMARK  141  A    between atoms: _344  and  _347
REMARK  142  A    between atoms: _347  and  _348
REMARK  143  A    between atoms: _351  and  _353
REMARK  144  A    between atoms: _353  and  _354
REMARK  145  A    between atoms: _357  and  _359
REMARK  146  A    between atoms: _359  and  _360
REMARK  147  A    between atoms: _359  and  _362
REMARK  148  A    between atoms: _362  and  _363
REMARK  149  A    between atoms: _363  and  _486
REMARK  150  A    between atoms: _364  and  _366
REMARK  151  A    between atoms: _366  and  _367
REMARK  152  A    between atoms: _366  and  _369
REMARK  153  A    between atoms: _369  and  _370
REMARK  154  A    between atoms: _370  and  _371
REMARK  155  A    between atoms: _371  and  _372
REMARK  156  A    between atoms: _372  and  _373
REMARK  157  A    between atoms: _377  and  _379
REMARK  158  A    between atoms: _379  and  _380
REMARK  159  A    between atoms: _382  and  _384
REMARK  160  A    between atoms: _384  and  _385
REMARK  161  A    between atoms: _384  and  _387
REMARK  162  A    between atoms: _387  and  _388
REMARK  163  A    between atoms: _391  and  _393
REMARK  164  A    between atoms: _393  and  _394
REMARK  165  A    between atoms: _393  and  _396
REMARK  166  A    between atoms: _396  and  _397
REMARK  167  A    between atoms: _399  and  _401
REMARK  168  A    between atoms: _401  and  _402
REMARK  169  A    between atoms: _404  and  _406
REMARK  170  A    between atoms: _406  and  _407
REMARK  171  A    between atoms: _409  and  _411
REMARK  172  A    between atoms: _411  and  _412
REMARK  173  A    between atoms: _411  and  _414
REMARK  174  A    between atoms: _414  and  _415
REMARK  175  A    between atoms: _418  and  _420
REMARK  176  A    between atoms: _420  and  _421
REMARK  177  A    between atoms: _420  and  _423
REMARK  178  A    between atoms: _423  and  _424
REMARK  179  A    between atoms: _427  and  _429
REMARK  180  A    between atoms: _429  and  _430
REMARK  181  A    between atoms: _429  and  _432
REMARK  182  A    between atoms: _432  and  _433
REMARK  183  A    between atoms: _436  and  _438
REMARK  184  A    between atoms: _438  and  _439
REMARK  185  A    between atoms: _438  and  _441
REMARK  186  A    between atoms: _441  and  _442
REMARK  187  A    between atoms: _444  and  _446
REMARK  188  A    between atoms: _446  and  _447
REMARK  189  A    between atoms: _446  and  _449
REMARK  190  A    between atoms: _449  and  _450
REMARK  191  A    between atoms: _460  and  _462
REMARK  192  A    between atoms: _462  and  _463
REMARK  193  A    between atoms: _465  and  _467
REMARK  194  A    between atoms: _467  and  _468
REMARK  195  A    between atoms: _467  and  _470
REMARK  196  A    between atoms: _470  and  _471
REMARK  197  A    between atoms: _471  and  _472
REMARK  198  A    between atoms: _475  and  _477
REMARK  199  A    between atoms: _477  and  _478
REMARK  200  A    between atoms: _480  and  _482
REMARK  201  A    between atoms: _482  and  _483
REMARK  202  A    between atoms: _482  and  _485
REMARK  203  A    between atoms: _485  and  _486
REMARK  204  A    between atoms: _487  and  _489
REMARK  205  A    between atoms: _489  and  _490
REMARK  206  A    between atoms: _493  and  _495
REMARK  207  A    between atoms: _495  and  _496
REMARK  208  A    between atoms: _495  and  _498
REMARK  209  A    between atoms: _498  and  _499
REMARK  210  A    between atoms: _499  and  _500
REMARK  211  A    between atoms: _505  and  _507
REMARK  212  A    between atoms: _507  and  _508
REMARK  213  A    between atoms: _507  and  _510
REMARK  214  A    between atoms: _510  and  _511
REMARK  215  A    between atoms: _511  and  _512
REMARK  216  A    between atoms: _512  and  _513
REMARK  217  A    between atoms: _523  and  _524
REMARK  218  A    between atoms: _529  and  _531
REMARK  219  A    between atoms: _531  and  _532
REMARK  220  A    between atoms: _534  and  _536
REMARK  221  A    between atoms: _536  and  _537
REMARK  222  A    between atoms: _536  and  _539
REMARK  223  A    between atoms: _542  and  _544
REMARK  224  A    between atoms: _544  and  _545
REMARK  225  A    between atoms: _544  and  _547
REMARK  226  A    between atoms: _547  and  _548
REMARK  227  A    between atoms: _553  and  _554
REMARK  228  A    between atoms: _556  and  _558
REMARK  229  A    between atoms: _558  and  _559
REMARK  230  A    between atoms: _558  and  _561
REMARK  231  A    between atoms: _561  and  _562
REMARK                            x       y       z     vdW  Elec       q    Type
REMARK                         _______ _______ _______ _____ _____    ______ ____
ROOT
ATOM      1  CA  HIS A   2      44.629 -27.263  39.250  0.00  0.00    +0.155 C 
ENDROOT
BRANCH   1   3
ATOM      2  C   LEU A   1      42.519 -25.989  39.306  0.00  0.00    +0.238 C 
ATOM      3  N   HIS A   2      43.378 -26.853  39.887  0.00  0.00    -0.297 N 
ATOM      4  H   HIS A   2      43.141 -27.242  40.822  0.00  0.00    +0.150 HD
ATOM      5  O   LEU A   1      42.767 -25.395  38.255  0.00  0.00    -0.274 OA
BRANCH   2   6
ATOM      6  CA  LEU A   1      41.219 -25.691  40.064  0.00  0.00    +0.145 C 
BRANCH   6   7
ATOM      7  N   LEU A   1      41.258 -24.282  40.424  0.00  0.00    -0.238 NA
ATOM      8  H   LEU A   1      40.933 -23.582  39.727  0.00  0.00    +0.142 HD
ENDBRANCH   6   7
BRANCH   6   9
ATOM      9  CB  LEU A   1      39.956 -26.013  39.216  0.00  0.00    +0.026 C 
BRANCH   9  10
ATOM     10  CG  LEU A   1      39.913 -27.389  38.503  0.00  0.00    +0.002 C 
ATOM     11  CD2 LEU A   1      39.759 -28.572  39.512  0.00  0.00    +0.000 C 
ATOM     12  CD1 LEU A   1      38.836 -27.417  37.456  0.00  0.00    +0.000 C 
ENDBRANCH   9  10
ENDBRANCH   6   9
ENDBRANCH   2   6
ENDBRANCH   1   3
BRANCH   1  13
ATOM     13  C   HIS A   2      44.517 -28.637  38.631  0.00  0.00    +0.241 C 
ATOM     14  O   HIS A   2      43.719 -29.469  39.050  0.00  0.00    -0.273 OA
ATOM     15  N   THR A   3      45.364 -28.882  37.654  0.00  0.00    -0.296 N 
ATOM     16  H   THR A   3      45.958 -28.099  37.315  0.00  0.00    +0.150 HD
BRANCH  15  17
ATOM     17  CA  THR A   3      45.520 -30.180  37.020  0.00  0.00    +0.164 C 
BRANCH  17  18
ATOM     18  C   THR A   3      46.957 -30.617  37.359  0.00  0.00    +0.229 C 
ATOM     19  O   THR A   3      47.806 -29.730  37.525  0.00  0.00    -0.286 OA
ENDBRANCH  17  18
BRANCH  17  20
ATOM     20  CB  THR A   3      45.171 -30.113  35.514  0.00  0.00    +0.136 C 
ATOM     21  CG2 THR A   3      46.083 -29.160  34.690  0.00  0.00    +0.034 C 
BRANCH  20  22
ATOM     22  OG1 THR A   3      45.287 -31.417  34.995  0.00  0.00    -0.382 OA
ATOM     23  HG1 THR A   3      45.069 -31.407  34.029  0.00  0.00    +0.210 HD
ENDBRANCH  20  22
ENDBRANCH  17  20
ENDBRANCH  15  17
ENDBRANCH   1  13
BRANCH   1  24
ATOM     24  CB  HIS A   2      45.814 -27.286  40.237  0.00  0.00    +0.076 C 
BRANCH  24  25
ATOM     25  CG  HIS A   2      46.354 -25.950  40.627  0.00  0.00    +0.082 A 
ATOM     26  ND1 HIS A   2      47.691 -25.787  40.939  0.00  0.00    -0.227 NA
ATOM     27  CE1 HIS A   2      47.834 -24.507  41.239  0.00  0.00    +0.199 A 
ATOM     28  NE2 HIS A   2      46.670 -23.858  41.177  0.00  0.00    -0.221 NA
ATOM     29  CD2 HIS A   2      45.715 -24.773  40.810  0.00  0.00    +0.115 A 
ENDBRANCH  24  25
ENDBRANCH   1  24
TORSDOF 12
REMARK  Name = ../refined-set-2016/4x6m/4x6m_pocket.pdb
REMARK  231 active torsions:
REMARK  status: ('A' for Active; 'I' for Inactive)
REMARK    1  A    between atoms: _1  and  _5
REMARK    2  A    between atoms: _5  and  _6
REMARK    3  A    between atoms: _5  and  _8
REMARK    4  A    between atoms: _8  and  _9
REMARK    5  A    between atoms: _12  and  _14
REMARK    6  A    between atoms: _14  and  _15
REMARK    7  A    between atoms: _14  and  _17
REMARK    8  A    between atoms: _20  and  _22
REMARK    9  A    between atoms: _22  and  _23
REMARK   10  A    between atoms: _22  and  _25
REMARK   11  A    between atoms: _25  and  _26
REMARK   12  A    between atoms: _29  and  _31
REMARK   13  A    between atoms: _31  and  _32
REMARK   14  A    between atoms: _31  and  _34
REMARK   15  A    between atoms: _34  and  _35
REMARK   16  A    between atoms: _40  and  _42
REMARK   17  A    between atoms: _42  and  _43
REMARK   18  A    between atoms: _42  and  _45
REMARK   19  A    between atoms: _45  and  _46
REMARK   20  A    between atoms: _49  and  _51
REMARK   21  A    between atoms: _51  and  _52
REMARK   22  A    between atoms: _51  and  _54
REMARK   23  A    between atoms: _54  and  _55
REMARK   24  A    between atoms: _58  and  _60
REMARK   25  A    between atoms: _60  and  _61
REMARK   26  A    between atoms: _60  and  _63
REMARK   27  A    between atoms: _63  and  _64
REMARK   28  A    between atoms: _64  and  _65
REMARK   29  A    between atoms: _70  and  _72
REMARK   30  A    between atoms: _72  and  _73
REMARK   31  A    between atoms: _72  and  _75
REMARK   32  A    between atoms: _75  and  _76
REMARK   33  A    between atoms: _76  and  _77
REMARK   34  A    between atoms: _77  and  _78
REMARK   35  A    between atoms: _87  and  _89
REMARK   36  A    between atoms: _89  and  _90
REMARK   37  A    between atoms: _89  and  _92
REMARK   38  A    between atoms: _92  and  _93
REMARK   39  A    between atoms: _98  and  _100
REMARK   40  A    between atoms: _100  and  _101
REMARK   41  A    between atoms: _100  and  _103
REMARK   42  A    between atoms: _103  and  _104
REMARK   43  A    between atoms: _107  and  _109
REMARK   44  A    between atoms: _109  and  _110
REMARK   45  A    between atoms: _109  and  _112
REMARK   46  A    between atoms: _112  and  _113
REMARK   47  A    between atoms: _113  and  _148
REMARK   48  A    between atoms: _114  and  _116
REMARK   49  A    between atoms: _116  and  _117
REMARK   50  A    between atoms: _119  and  _121
REMARK   51  A    between atoms: _121  and  _122
REMARK   52  A    between atoms: _125  and  _127
REMARK   53  A    between atoms: _127  and  _128
REMARK   54  A    between atoms: _131  and  _133
REMARK   55  A    between atoms: _133  and  _134
REMARK   56  A    between atoms: _133  and  _136
REMARK   57  A    between atoms: _136  and  _137
REMARK   58  A    between atoms: _142  and  _144
REMARK   59  A    between atoms: _144  and  _145
REMARK   60  A    between atoms: _144  and  _147
REMARK   61  A    between atoms: _147  and  _148
REMARK   62  A    between atoms: _149  and  _151
REMARK   63  A    between atoms: _151  and  _152
REMARK   64  A    between atoms: _151  and  _154
REMARK   65  A    between atoms: _154  and  _155
REMARK   66  A    between atoms: _161  and  _163
REMARK   67  A    between atoms: _163  and  _164
REMARK   68  A    between atoms: _163  and  _166
REMARK   69  A    between atoms: _166  and  _167
REMARK   70  A    between atoms: _172  and  _173
REMARK   71  A    between atoms: _175  and  _177
REMARK   72  A    between atoms: _177  and  _178
REMARK   73  A    between atoms: _177  and  _180
REMARK   74  A    between atoms: _183  and  _185
REMARK   75  A    between atoms: _185  and  _186
REMARK   76  A    between atoms: _189  and  _191
REMARK   77  A    between atoms: _191  and  _192
REMARK   78  A    between atoms: _191  and  _194
REMARK   79  A    between atoms: _194  and  _195
REMARK   80  A    between atoms: _198  and  _200
REMARK   81  A    between atoms: _200  and  _201
REMARK   82  A    between atoms: _200  and  _203
REMARK   83  A    between atoms: _206  and  _208
REMARK   84  A    between atoms: _208  and  _209
REMARK   85  A    between atoms: _208  and  _211
REMARK   86  A    between atoms: _211  and  _212
REMARK   87  A    between atoms: _222  and  _224
REMARK   88  A    between atoms: _224  and  _225
REMARK   89  A    between atoms: _227  and  _229
REMARK   90  A    between atoms: _229  and  _230
REMARK   91  A    between atoms: _229  and  _232
REMARK   92  A    between atoms: _232  and  _233
REMARK   93  A    between atoms: _238  and  _239
REMARK   94  A    between atoms: _241  and  _243
REMARK   95  A    between atoms: _243  and  _244
REMARK   96  A    between atoms: _243  and  _246
REMARK   97  A    between atoms: _246  and  _247
REMARK   98  A    between atoms: _250  and  _252
REMARK   99  A    between atoms: _252  and  _253
REMARK  100  A    between atoms: _252  and  _255
REMARK  101  A    between atoms: _255  and  _256
REMARK  102  A    between atoms: _259  and  _261
REMARK  103  A    between atoms: _261  and  _262
REMARK  104  A    between atoms: _261  and  _264
REMARK  105  A    between atoms: _264  and  _265
REMARK  106  A    between atoms: _265  and  _266
REMARK  107  A    between atoms: _266  and  _267
REMARK  108  A    between atoms: _267  and  _268
REMARK  109  A    between atoms: _272  and  _274
REMARK  110  A    between atoms: _274  and  _275
REMARK  111  A    between atoms: _274  and  _277
REMARK  112  A    between atoms: _277  and  _278
REMARK  113  A    between atoms: _281  and  _283
REMARK  114  A    between atoms: _283  and  _284
REMARK  115  A    between atoms: _283  and  _286
REMARK  116  A    between atoms: _286  and  _287
REMARK  117  A    between atoms: _287  and  _288
REMARK  118  A    between atoms: _293  and  _295
REMARK  119  A    between atoms: _295  and  _296
REMARK  120  A    between atoms: _295  and  _298
REMARK  121  A    between atoms: _298  and  _299
REMARK  122  A    between atoms: _304  and  _305
REMARK  123  A    between atoms: _307  and  _309
REMARK  124  A    between atoms: _309  and  _310
REMARK  125  A    between atoms: _309  and  _312
REMARK  126  A    between atoms: _312  and  _313
REMARK  127  A    between atoms: _316  and  _318
REMARK  128  A    between atoms: _318  and  _319
REMARK  129  A    between atoms: _318  and  _321
REMARK  130  A    between atoms: _323  and  _325
REMARK  131  A    between atoms: _325  and  _326
REMARK  132  A    between atoms: _329  and  _331
REMARK  133  A    between atoms: _331  and  _332
REMARK  134  A    between atoms: _331  and  _334
REMARK  135  A    between atoms: _334  and  _335
REMARK  136  A    between atoms: _335  and  _336
REMARK  137  A    between atoms: _336  and  _337
REMARK  138  A    between atoms: _337  and  _338
REMARK  139  A    between atoms: _342  and  _344
REMARK  140  A    between atoms: _344  and  _345
REMARK  141  A    between atoms: _344  and  _347
REMARK  142  A    between atoms: _347  and  _348
REMARK  143  A    between atoms: _351  and  _353
REMARK  144  A    between atoms: _353  and  _354
REMARK  145  A    between atoms: _357  and  _359
REMARK  146  A    between atoms: _359  and  _360
REMARK  147  A    between atoms: _359  and  _362
REMARK  148  A    between atoms: _362  and  _363
REMARK  149  A    between atoms: _363  and  _486
REMARK  150  A    between atoms: _364  and  _366
REMARK  151  A    between atoms: _366  and  _367
REMARK  152  A    between atoms: _366  and  _369
REMARK  153  A    between atoms: _369  and  _370
REMARK  154  A    between atoms: _370  and  _371
REMARK  155  A    between atoms: _371  and  _372
REMARK  156  A    between atoms: _372  and  _373
REMARK  157  A    between atoms: _377  and  _379
REMARK  158  A    between atoms: _379  and  _380
REMARK  159  A    between atoms: _382  and  _384
REMARK  160  A    between atoms: _384  and  _385
REMARK  161  A    between atoms: _384  and  _387
REMARK  162  A    between atoms: _387  and  _388
REMARK  163  A    between atoms: _391  and  _393
REMARK  164  A    between atoms: _393  and  _394
REMARK  165  A    between atoms: _393  and  _396
REMARK  166  A    between atoms: _396  and  _397
REMARK  167  A    between atoms: _399  and  _401
REMARK  168  A    between atoms: _401  and  _402
REMARK  169  A    between atoms: _404  and  _406
REMARK  170  A    between atoms: _406  and  _407
REMARK  171  A    between atoms: _409  and  _411
REMARK  172  A    between atoms: _411  and  _412
REMARK  173  A    between atoms: _411  and  _414
REMARK  174  A    between atoms: _414  and  _415
REMARK  175  A    between atoms: _418  and  _420
REMARK  176  A    between atoms: _420  and  _421
REMARK  177  A    between atoms: _420  and  _423
REMARK  178  A    between atoms: _423  and  _424
REMARK  179  A    between atoms: _427  and  _429
REMARK  180  A    between atoms: _429  and  _430
REMARK  181  A    between atoms: _429  and  _432
REMARK  182  A    between atoms: _432  and  _433
REMARK  183  A    between atoms: _436  and  _438
REMARK  184  A    between atoms: _438  and  _439
REMARK  185  A    between atoms: _438  and  _441
REMARK  186  A    between atoms: _441  and  _442
REMARK  187  A    between atoms: _444  and  _446
REMARK  188  A    between atoms: _446  and  _447
REMARK  189  A    between atoms: _446  and  _449
REMARK  190  A    between atoms: _449  and  _450
REMARK  191  A    between atoms: _460  and  _462
REMARK  192  A    between atoms: _462  and  _463
REMARK  193  A    between atoms: _465  and  _467
REMARK  194  A    between atoms: _467  and  _468
REMARK  195  A    between atoms: _467  and  _470
REMARK  196  A    between atoms: _470  and  _471
REMARK  197  A    between atoms: _471  and  _472
REMARK  198  A    between atoms: _475  and  _477
REMARK  199  A    between atoms: _477  and  _478
REMARK  200  A    between atoms: _480  and  _482
REMARK  201  A    between atoms: _482  and  _483
REMARK  202  A    between atoms: _482  and  _485
REMARK  203  A    between atoms: _485  and  _486
REMARK  204  A    between atoms: _487  and  _489
REMARK  205  A    between atoms: _489  and  _490
REMARK  206  A    between atoms: _493  and  _495
REMARK  207  A    between atoms: _495  and  _496
REMARK  208  A    between atoms: _495  and  _498
REMARK  209  A    between atoms: _498  and  _499
REMARK  210  A    between atoms: _499  and  _500
REMARK  211  A    between atoms: _505  and  _507
REMARK  212  A    between atoms: _507  and  _508
REMARK  213  A    between atoms: _507  and  _510
REMARK  214  A    between atoms: _510  and  _511
REMARK  215  A    between atoms: _511  and  _512
REMARK  216  A    between atoms: _512  and  _513
REMARK  217  A    between atoms: _523  and  _524
REMARK  218  A    between atoms: _529  and  _531
REMARK  219  A    between atoms: _531  and  _532
REMARK  220  A    between atoms: _534  and  _536
REMARK  221  A    between atoms: _536  and  _537
REMARK  222  A    between atoms: _536  and  _539
REMARK  223  A    between atoms: _542  and  _544
REMARK  224  A    between atoms: _544  and  _545
REMARK  225  A    between atoms: _544  and  _547
REMARK  226  A    between atoms: _547  and  _548
REMARK  227  A    between atoms: _553  and  _554
REMARK  228  A    between atoms: _556  and  _558
REMARK  229  A    between atoms: _558  and  _559
REMARK  230  A    between atoms: _558  and  _561
REMARK  231  A    between atoms: _561  and  _562
REMARK                            x       y       z     vdW  Elec       q    Type
REMARK                         _______ _______ _______ _____ _____    ______ ____
ROOT
ATOM      1  CA  TYR A   6      40.269 -22.936  35.769  0.00  0.00    +0.160 C 
ENDROOT
BRANCH   1   2
ATOM      2  C   TYR A   6      39.960 -22.370  37.131  0.00  0.00    +0.242 C 
ATOM      3  O   TYR A   6      40.443 -22.866  38.163  0.00  0.00    -0.273 OA
ATOM      4  N   GLY A   7      39.062 -21.397  37.116  0.00  0.00    -0.296 N 
ATOM      5  H   GLY A   7      38.765 -21.010  36.198  0.00  0.00    +0.150 HD
BRANCH   4   6
ATOM      6  CA  GLY A   7      38.471 -20.845  38.326  0.00  0.00    +0.163 C 
BRANCH   6   7
ATOM      7  C   GLY A   7      37.253 -21.679  38.673  0.00  0.00    +0.229 C 
ATOM      8  O   GLY A   7      36.849 -22.568  37.911  0.00  0.00    -0.286 OA
ENDBRANCH   6   7
ENDBRANCH   4   6
ENDBRANCH   1   2
BRANCH   1  10
ATOM      9  C   PHE A   5      42.259 -23.969  34.747  0.00  0.00    +0.241 C 
ATOM     10  N   TYR A   6      41.472 -23.761  35.810  0.00  0.00    -0.296 N 
ATOM     11  H   TYR A   6      41.731 -24.211  36.711  0.00  0.00    +0.150 HD
ATOM     12  O   PHE A   5      42.059 -23.435  33.655  0.00  0.00    -0.273 OA
BRANCH   9  13
ATOM     13  CA  PHE A   5      43.432 -24.952  34.950  0.00  0.00    +0.149 C 
BRANCH  13  15
ATOM     14  C   CYS A   4      45.483 -24.085  36.034  0.00  0.00    +0.241 C 
ATOM     15  N   PHE A   5      44.246 -24.580  36.106  0.00  0.00    -0.297 N 
ATOM     16  H   PHE A   5      43.832 -24.710  37.051  0.00  0.00    +0.150 HD
ATOM     17  O   CYS A   4      46.107 -23.952  34.969  0.00  0.00    -0.273 OA
BRANCH  14  18
ATOM     18  CA  CYS A   4      46.155 -23.732  37.378  0.00  0.00    +0.155 C 
BRANCH  18  20
ATOM     19  C   HIS A   3      47.822 -25.517  37.232  0.00  0.00    +0.241 C 
ATOM     20  N   CYS A   4      47.526 -24.200  37.307  0.00  0.00    -0.297 N 
ATOM     21  H   CYS A   4      48.300 -23.506  37.314  0.00  0.00    +0.150 HD
ATOM     22  O   HIS A   3      46.964 -26.399  37.263  0.00  0.00    -0.273 OA
BRANCH  19  23
ATOM     23  CA  HIS A   3      49.293 -25.893  37.054  0.00  0.00    +0.149 C 
BRANCH  23  26
ATOM     24  C   ALA A   2      50.686 -27.763  37.781  0.00  0.00    +0.241 C 
ATOM     25  O   ALA A   2      51.734 -27.100  37.781  0.00  0.00    -0.273 OA
ATOM     26  N   HIS A   3      49.487 -27.271  37.431  0.00  0.00    -0.297 N 
ATOM     27  H   HIS A   3      48.666 -27.909  37.432  0.00  0.00    +0.150 HD
BRANCH  24  28
ATOM     28  CA  ALA A   2      50.704 -29.233  38.144  0.00  0.00    +0.149 C 
BRANCH  28  30
ATOM     29  C   ALA A   1      51.511 -30.189  36.089  0.00  0.00    +0.241 C 
ATOM     30  N   ALA A   2      51.726 -29.907  37.384  0.00  0.00    -0.297 N 
ATOM     31  H   ALA A   2      52.624 -30.173  37.836  0.00  0.00    +0.150 HD
ATOM     32  O   ALA A   1      50.454 -29.926  35.502  0.00  0.00    -0.274 OA
BRANCH  29  33
ATOM     33  CA  ALA A   1      52.638 -30.866  35.338  0.00  0.00    +0.172 C 
BRANCH  33  34
ATOM     34  N   ALA A   1      52.063 -31.662  34.244  0.00  0.00    -0.236 NA
ATOM     35  H   ALA A   1      51.499 -31.157  33.531  0.00  0.00    +0.142 HD
ENDBRANCH  33  34
BRANCH  33  36
ATOM     36  CB  ALA A   1      53.588 -29.787  34.798  0.00  0.00    +0.135 C 
ATOM     37  CG2 ALA A   1      54.904 -30.368  34.286  0.00  0.00    +0.034 C 
BRANCH  36  38
ATOM     38  OG1 ALA A   1      52.916 -29.061  33.764  0.00  0.00    -0.383 OA
ATOM     39  HG1 ALA A   1      52.102 -28.638  34.135  0.00  0.00    +0.210 HD
ENDBRANCH  36  38
ENDBRANCH  33  36
ENDBRANCH  29  33
ENDBRANCH  28  30
BRANCH  28  40
ATOM     40  CB  ALA A   2      50.799 -29.456  39.657  0.00  0.00    +0.039 C 
BRANCH  40  41
ATOM     41  CG  ALA A   2      49.488 -29.073  40.359  0.00  0.00    +0.087 C 
BRANCH  41  42
ATOM     42  CD  ALA A   2      49.581 -29.069  41.850  0.00  0.00    +0.219 C 
ATOM     43  NE2 ALA A   2      49.070 -28.012  42.473  0.00  0.00    -0.329 N 
ATOM     44 HE21 ALA A   2      49.053 -27.979  43.512  0.00  0.00    +0.145 HD
ATOM     45 HE22 ALA A   2      48.687 -27.218  41.921  0.00  0.00    +0.145 HD
ATOM     46  OE1 ALA A   2      50.046 -30.033  42.459  0.00  0.00    -0.275 OA
ENDBRANCH  41  42
ENDBRANCH  40  41
ENDBRANCH  28  40
ENDBRANCH  24  28
ENDBRANCH  23  26
BRANCH  23  47
ATOM     47  CB  HIS A   3      49.767 -25.663  35.595  0.00  0.00    +0.033 C 
BRANCH  47  48
ATOM     48  CG  HIS A   3      48.997 -26.447  34.552  0.00  0.00    +0.045 C 
BRANCH  48  49
ATOM     49  CD  HIS A   3      49.456 -26.126  33.143  0.00  0.00    +0.174 C 
BRANCH  49  50
ATOM     50  NE  HIS A   3      48.733 -26.941  32.166  0.00  0.00    -0.265 N 
ATOM     51  HE  HIS A   3      49.166 -27.841  31.877  0.00  0.00    +0.259 HD
ATOM     52  CZ  HIS A   3      47.563 -26.617  31.619  0.00  0.00    +0.342 C 
ATOM     53  NH2 HIS A   3      46.966 -25.473  31.934  0.00  0.00    -0.292 N 
ATOM     54 HH21 HIS A   3      47.412 -24.823  32.612  0.00  0.00    +0.255 HD
ATOM     55 HH22 HIS A   3      46.052 -25.227  31.502  0.00  0.00    +0.255 HD
ATOM     56  NH1 HIS A   3      46.979 -27.436  30.755  0.00  0.00    -0.292 N 
ATOM     57 HH11 HIS A   3      47.435 -28.336  30.502  0.00  0.00    +0.255 HD
ATOM     58 HH12 HIS A   3      46.065 -27.178  30.330  0.00  0.00    +0.255 HD
ENDBRANCH  49  50
ENDBRANCH  48  49
ENDBRANCH  47  48
ENDBRANCH  23  47
ENDBRANCH  19  23
ENDBRANCH  18  20
BRANCH  18  59
ATOM     59  CB  CYS A   4      46.155 -22.236  37.630  0.00  0.00    +0.076 C 
BRANCH  59  60
ATOM     60  CG  CYS A   4      44.851 -21.544  37.343  0.00  0.00    +0.082 A 
ATOM     61  ND1 CYS A   4      43.912 -21.330  38.341  0.00  0.00    -0.227 NA
ATOM     62  CE1 CYS A   4      42.929 -20.666  37.765  0.00  0.00    +0.199 A 
ATOM     63  NE2 CYS A   4      43.183 -20.429  36.466  0.00  0.00    -0.221 NA
ATOM     64  CD2 CYS A   4      44.412 -20.968  36.192  0.00  0.00    +0.115 A 
ENDBRANCH  59  60
ENDBRANCH  18  59
ENDBRANCH  14  18
ENDBRANCH  13  15
BRANCH  13  65
ATOM     65  CB  PHE A   5      42.888 -26.401  35.117  0.00  0.00    +0.029 C 
BRANCH  65  66
ATOM     66  CG  PHE A   5      41.987 -26.921  33.996  0.00  0.00    +0.002 C 
ATOM     67  CD2 PHE A   5      41.252 -28.225  34.395  0.00  0.00    +0.000 C 
ATOM     68  CD1 PHE A   5      42.740 -27.006  32.676  0.00  0.00    +0.000 C 
ENDBRANCH  65  66
ENDBRANCH  13  65
ENDBRANCH   9  13
ENDBRANCH   1  10
BRANCH   1  69
ATOM     69  CB  TYR A   6      39.094 -23.786  35.285  0.00  0.00    +0.098 C 
BRANCH  69  70
ATOM     70  SG  TYR A   6      38.945 -23.908  33.483  0.00  0.00    -0.080 S 
BRANCH  70  71
ATOM     71  SG  CYS A   4      37.029 -24.574  33.265  0.00  0.00    -0.080 S 
BRANCH  71  72
ATOM     72  CB  CYS A   4      37.238 -26.353  33.036  0.00  0.00    +0.098 C 
BRANCH  72  73
ATOM     73  CA  CYS A   4      37.446 -26.783  31.586  0.00  0.00    +0.160 C 
BRANCH  73  74
ATOM     74  N   CYS A   4      36.205 -26.599  30.830  0.00  0.00    -0.296 N 
ATOM     75  H   CYS A   4      35.367 -26.269  31.350  0.00  0.00    +0.150 HD
ATOM     76  C   HIS A   3      36.074 -26.826  29.519  0.00  0.00    +0.241 C 
ATOM     77  O   HIS A   3      37.001 -27.222  28.804  0.00  0.00    -0.273 OA
BRANCH  76  78
ATOM     78  CA  HIS A   3      34.675 -26.603  28.905  0.00  0.00    +0.155 C 
BRANCH  78  79
ATOM     79  N   HIS A   3      33.572 -26.612  29.907  0.00  0.00    -0.297 N 
ATOM     80  C   ALA A   2      33.255 -27.733  30.624  0.00  0.00    +0.241 C 
ATOM     81  O   ALA A   2      33.866 -28.800  30.500  0.00  0.00    -0.273 OA
ATOM     82  H   HIS A   3      33.027 -25.740  30.066  0.00  0.00    +0.150 HD
BRANCH  80  83
ATOM     83  CA  ALA A   2      32.068 -27.681  31.590  0.00  0.00    +0.149 C 
ATOM     84  CB  ALA A   2      30.780 -28.025  30.837  0.00  0.00    +0.031 C 
BRANCH  83  85
ATOM     85  N   ALA A   2      31.924 -26.387  32.226  0.00  0.00    -0.297 N 
ATOM     86  C   ALA A   1      32.851 -25.786  32.987  0.00  0.00    +0.238 C 
ATOM     87  O   ALA A   1      33.935 -26.288  33.256  0.00  0.00    -0.274 OA
ATOM     88  H   ALA A   2      31.027 -25.882  32.080  0.00  0.00    +0.150 HD
BRANCH  86  89
ATOM     89  CA  ALA A   1      32.523 -24.388  33.496  0.00  0.00    +0.145 C 
ATOM     90  CB  ALA A   1      33.209 -23.336  32.620  0.00  0.00    +0.028 C 
BRANCH  89  91
ATOM     91  N   ALA A   1      32.937 -24.245  34.890  0.00  0.00    -0.238 NA
ATOM     92  H   ALA A   1      33.924 -23.990  35.096  0.00  0.00    +0.142 HD
ENDBRANCH  89  91
ENDBRANCH  86  89
ENDBRANCH  83  85
ENDBRANCH  80  83
ENDBRANCH  78  79
BRANCH  78  93
ATOM     93  CB  HIS A   3      34.664 -25.353  28.000  0.00  0.00    +0.076 C 
BRANCH  93  94
ATOM     94  CG  HIS A   3      35.117 -24.103  28.680  0.00  0.00    +0.082 A 
ATOM     95  ND1 HIS A   3      34.211 -23.191  29.180  0.00  0.00    -0.227 NA
ATOM     96  CE1 HIS A   3      34.928 -22.230  29.737  0.00  0.00    +0.199 A 
ATOM     97  NE2 HIS A   3      36.237 -22.488  29.658  0.00  0.00    -0.221 NA
ATOM     98  CD2 HIS A   3      36.372 -23.677  28.969  0.00  0.00    +0.115 A 
ENDBRANCH  93  94
ENDBRANCH  78  93
ENDBRANCH  76  78
ENDBRANCH  73  74
BRANCH  73  99
ATOM     99  C   CYS A   4      37.953 -28.214  31.528  0.00  0.00    +0.242 C 
ATOM    100  O   CYS A   4      39.149 -28.436  31.692  0.00  0.00    -0.273 OA
ATOM    101  N   PHE A   5      37.041 -29.184  31.352  0.00  0.00    -0.297 N 
ATOM    102  H   PHE A   5      36.057 -28.899  31.176  0.00  0.00    +0.150 HD
BRANCH 101 103
ATOM    103  CA  PHE A   5      37.341 -30.614  31.392  0.00  0.00    +0.153 C 
BRANCH 103 104
ATOM    104  C   PHE A   5      37.591 -31.250  30.013  0.00  0.00    +0.241 C 
ATOM    105  O   PHE A   5      37.714 -32.477  29.933  0.00  0.00    -0.273 OA
ATOM    106  N   TYR A   6      37.771 -30.422  28.949  0.00  0.00    -0.298 N 
ATOM    107  H   TYR A   6      37.672 -29.395  29.083  0.00  0.00    +0.150 HD
BRANCH 106 108
ATOM    108  CA  TYR A   6      38.101 -30.939  27.619  0.00  0.00    +0.141 C 
BRANCH 108 109
ATOM    109  C   TYR A   6      39.386 -31.792  27.749  0.00  0.00    +0.227 C 
ATOM    110  O   TYR A   6      40.376 -31.338  28.324  0.00  0.00    -0.286 OA
ENDBRANCH 108 109
BRANCH 108 111
ATOM    111  CB  TYR A   6      38.310 -29.791  26.602  0.00  0.00    +0.054 C 
BRANCH 111 112
ATOM    112  CG  TYR A   6      38.679 -30.318  25.233  0.00  0.00    -0.020 A 
ATOM    113  CD2 TYR A   6      40.019 -30.461  24.855  0.00  0.00    -0.001 A 
ATOM    114  CE2 TYR A   6      40.369 -31.012  23.624  0.00  0.00    +0.036 A 
ATOM    115  CZ  TYR A   6      39.371 -31.423  22.746  0.00  0.00    +0.134 A 
ATOM    116  CE1 TYR A   6      38.037 -31.332  23.119  0.00  0.00    +0.036 A 
ATOM    117  CD1 TYR A   6      37.702 -30.808  24.366  0.00  0.00    -0.001 A 
BRANCH 115 118
ATOM    118  OH  TYR A   6      39.695 -31.977  21.532  0.00  0.00    -0.506 OA
ATOM    119  HH  TYR A   6      38.865 -32.208  21.044  0.00  0.00    +0.292 HD
ENDBRANCH 115 118
ENDBRANCH 111 112
ENDBRANCH 108 111
ENDBRANCH 106 108
ENDBRANCH 103 104
BRANCH 103 120
ATOM    120  CB  PHE A   5      36.255 -31.349  32.201  0.00  0.00    +0.055 C 
BRANCH 120 121
ATOM    121  CG  PHE A   5      36.078 -30.629  33.520  0.00  0.00    -0.020 A 
ATOM    122  CD2 PHE A   5      37.064 -30.695  34.505  0.00  0.00    -0.004 A 
ATOM    123  CE2 PHE A   5      36.948 -29.960  35.683  0.00  0.00    -0.000 A 
ATOM    124  CZ  PHE A   5      35.876 -29.122  35.866  0.00  0.00    -0.000 A 
ATOM    125  CE1 PHE A   5      34.891 -29.034  34.903  0.00  0.00    -0.000 A 
ATOM    126  CD1 PHE A   5      34.995 -29.779  33.729  0.00  0.00    -0.004 A 
ENDBRANCH 120 121
ENDBRANCH 103 120
ENDBRANCH 101 103
ENDBRANCH  73  99
ENDBRANCH  72  73
ENDBRANCH  71  72
ENDBRANCH  70  71
ENDBRANCH  69  70
ENDBRANCH   1  69
TORSDOF 51
REMARK  Name = ../refined-set-2016/4x6m/4x6m_pocket.pdb
REMARK  231 active torsions:
REMARK  status: ('A' for Active; 'I' for Inactive)
REMARK    1  A    between atoms: _1  and  _5
REMARK    2  A    between atoms: _5  and  _6
REMARK    3  A    between atoms: _5  and  _8
REMARK    4  A    between atoms: _8  and  _9
REMARK    5  A    between atoms: _12  and  _14
REMARK    6  A    between atoms: _14  and  _15
REMARK    7  A    between atoms: _14  and  _17
REMARK    8  A    between atoms: _20  and  _22
REMARK    9  A    between atoms: _22  and  _23
REMARK   10  A    between atoms: _22  and  _25
REMARK   11  A    between atoms: _25  and  _26
REMARK   12  A    between atoms: _29  and  _31
REMARK   13  A    between atoms: _31  and  _32
REMARK   14  A    between atoms: _31  and  _34
REMARK   15  A    between atoms: _34  and  _35
REMARK   16  A    between atoms: _40  and  _42
REMARK   17  A    between atoms: _42  and  _43
REMARK   18  A    between atoms: _42  and  _45
REMARK   19  A    between atoms: _45  and  _46
REMARK   20  A    between atoms: _49  and  _51
REMARK   21  A    between atoms: _51  and  _52
REMARK   22  A    between atoms: _51  and  _54
REMARK   23  A    between atoms: _54  and  _55
REMARK   24  A    between atoms: _58  and  _60
REMARK   25  A    between atoms: _60  and  _61
REMARK   26  A    between atoms: _60  and  _63
REMARK   27  A    between atoms: _63  and  _64
REMARK   28  A    between atoms: _64  and  _65
REMARK   29  A    between atoms: _70  and  _72
REMARK   30  A    between atoms: _72  and  _73
REMARK   31  A    between atoms: _72  and  _75
REMARK   32  A    between atoms: _75  and  _76
REMARK   33  A    between atoms: _76  and  _77
REMARK   34  A    between atoms: _77  and  _78
REMARK   35  A    between atoms: _87  and  _89
REMARK   36  A    between atoms: _89  and  _90
REMARK   37  A    between atoms: _89  and  _92
REMARK   38  A    between atoms: _92  and  _93
REMARK   39  A    between atoms: _98  and  _100
REMARK   40  A    between atoms: _100  and  _101
REMARK   41  A    between atoms: _100  and  _103
REMARK   42  A    between atoms: _103  and  _104
REMARK   43  A    between atoms: _107  and  _109
REMARK   44  A    between atoms: _109  and  _110
REMARK   45  A    between atoms: _109  and  _112
REMARK   46  A    between atoms: _112  and  _113
REMARK   47  A    between atoms: _113  and  _148
REMARK   48  A    between atoms: _114  and  _116
REMARK   49  A    between atoms: _116  and  _117
REMARK   50  A    between atoms: _119  and  _121
REMARK   51  A    between atoms: _121  and  _122
REMARK   52  A    between atoms: _125  and  _127
REMARK   53  A    between atoms: _127  and  _128
REMARK   54  A    between atoms: _131  and  _133
REMARK   55  A    between atoms: _133  and  _134
REMARK   56  A    between atoms: _133  and  _136
REMARK   57  A    between atoms: _136  and  _137
REMARK   58  A    between atoms: _142  and  _144
REMARK   59  A    between atoms: _144  and  _145
REMARK   60  A    between atoms: _144  and  _147
REMARK   61  A    between atoms: _147  and  _148
REMARK   62  A    between atoms: _149  and  _151
REMARK   63  A    between atoms: _151  and  _152
REMARK   64  A    between atoms: _151  and  _154
REMARK   65  A    between atoms: _154  and  _155
REMARK   66  A    between atoms: _161  and  _163
REMARK   67  A    between atoms: _163  and  _164
REMARK   68  A    between atoms: _163  and  _166
REMARK   69  A    between atoms: _166  and  _167
REMARK   70  A    between atoms: _172  and  _173
REMARK   71  A    between atoms: _175  and  _177
REMARK   72  A    between atoms: _177  and  _178
REMARK   73  A    between atoms: _177  and  _180
REMARK   74  A    between atoms: _183  and  _185
REMARK   75  A    between atoms: _185  and  _186
REMARK   76  A    between atoms: _189  and  _191
REMARK   77  A    between atoms: _191  and  _192
REMARK   78  A    between atoms: _191  and  _194
REMARK   79  A    between atoms: _194  and  _195
REMARK   80  A    between atoms: _198  and  _200
REMARK   81  A    between atoms: _200  and  _201
REMARK   82  A    between atoms: _200  and  _203
REMARK   83  A    between atoms: _206  and  _208
REMARK   84  A    between atoms: _208  and  _209
REMARK   85  A    between atoms: _208  and  _211
REMARK   86  A    between atoms: _211  and  _212
REMARK   87  A    between atoms: _222  and  _224
REMARK   88  A    between atoms: _224  and  _225
REMARK   89  A    between atoms: _227  and  _229
REMARK   90  A    between atoms: _229  and  _230
REMARK   91  A    between atoms: _229  and  _232
REMARK   92  A    between atoms: _232  and  _233
REMARK   93  A    between atoms: _238  and  _239
REMARK   94  A    between atoms: _241  and  _243
REMARK   95  A    between atoms: _243  and  _244
REMARK   96  A    between atoms: _243  and  _246
REMARK   97  A    between atoms: _246  and  _247
REMARK   98  A    between atoms: _250  and  _252
REMARK   99  A    between atoms: _252  and  _253
REMARK  100  A    between atoms: _252  and  _255
REMARK  101  A    between atoms: _255  and  _256
REMARK  102  A    between atoms: _259  and  _261
REMARK  103  A    between atoms: _261  and  _262
REMARK  104  A    between atoms: _261  and  _264
REMARK  105  A    between atoms: _264  and  _265
REMARK  106  A    between atoms: _265  and  _266
REMARK  107  A    between atoms: _266  and  _267
REMARK  108  A    between atoms: _267  and  _268
REMARK  109  A    between atoms: _272  and  _274
REMARK  110  A    between atoms: _274  and  _275
REMARK  111  A    between atoms: _274  and  _277
REMARK  112  A    between atoms: _277  and  _278
REMARK  113  A    between atoms: _281  and  _283
REMARK  114  A    between atoms: _283  and  _284
REMARK  115  A    between atoms: _283  and  _286
REMARK  116  A    between atoms: _286  and  _287
REMARK  117  A    between atoms: _287  and  _288
REMARK  118  A    between atoms: _293  and  _295
REMARK  119  A    between atoms: _295  and  _296
REMARK  120  A    between atoms: _295  and  _298
REMARK  121  A    between atoms: _298  and  _299
REMARK  122  A    between atoms: _304  and  _305
REMARK  123  A    between atoms: _307  and  _309
REMARK  124  A    between atoms: _309  and  _310
REMARK  125  A    between atoms: _309  and  _312
REMARK  126  A    between atoms: _312  and  _313
REMARK  127  A    between atoms: _316  and  _318
REMARK  128  A    between atoms: _318  and  _319
REMARK  129  A    between atoms: _318  and  _321
REMARK  130  A    between atoms: _323  and  _325
REMARK  131  A    between atoms: _325  and  _326
REMARK  132  A    between atoms: _329  and  _331
REMARK  133  A    between atoms: _331  and  _332
REMARK  134  A    between atoms: _331  and  _334
REMARK  135  A    between atoms: _334  and  _335
REMARK  136  A    between atoms: _335  and  _336
REMARK  137  A    between atoms: _336  and  _337
REMARK  138  A    between atoms: _337  and  _338
REMARK  139  A    between atoms: _342  and  _344
REMARK  140  A    between atoms: _344  and  _345
REMARK  141  A    between atoms: _344  and  _347
REMARK  142  A    between atoms: _347  and  _348
REMARK  143  A    between atoms: _351  and  _353
REMARK  144  A    between atoms: _353  and  _354
REMARK  145  A    between atoms: _357  and  _359
REMARK  146  A    between atoms: _359  and  _360
REMARK  147  A    between atoms: _359  and  _362
REMARK  148  A    between atoms: _362  and  _363
REMARK  149  A    between atoms: _363  and  _486
REMARK  150  A    between atoms: _364  and  _366
REMARK  151  A    between atoms: _366  and  _367
REMARK  152  A    between atoms: _366  and  _369
REMARK  153  A    between atoms: _369  and  _370
REMARK  154  A    between atoms: _370  and  _371
REMARK  155  A    between atoms: _371  and  _372
REMARK  156  A    between atoms: _372  and  _373
REMARK  157  A    between atoms: _377  and  _379
REMARK  158  A    between atoms: _379  and  _380
REMARK  159  A    between atoms: _382  and  _384
REMARK  160  A    between atoms: _384  and  _385
REMARK  161  A    between atoms: _384  and  _387
REMARK  162  A    between atoms: _387  and  _388
REMARK  163  A    between atoms: _391  and  _393
REMARK  164  A    between atoms: _393  and  _394
REMARK  165  A    between atoms: _393  and  _396
REMARK  166  A    between atoms: _396  and  _397
REMARK  167  A    between atoms: _399  and  _401
REMARK  168  A    between atoms: _401  and  _402
REMARK  169  A    between atoms: _404  and  _406
REMARK  170  A    between atoms: _406  and  _407
REMARK  171  A    between atoms: _409  and  _411
REMARK  172  A    between atoms: _411  and  _412
REMARK  173  A    between atoms: _411  and  _414
REMARK  174  A    between atoms: _414  and  _415
REMARK  175  A    between atoms: _418  and  _420
REMARK  176  A    between atoms: _420  and  _421
REMARK  177  A    between atoms: _420  and  _423
REMARK  178  A    between atoms: _423  and  _424
REMARK  179  A    between atoms: _427  and  _429
REMARK  180  A    between atoms: _429  and  _430
REMARK  181  A    between atoms: _429  and  _432
REMARK  182  A    between atoms: _432  and  _433
REMARK  183  A    between atoms: _436  and  _438
REMARK  184  A    between atoms: _438  and  _439
REMARK  185  A    between atoms: _438  and  _441
REMARK  186  A    between atoms: _441  and  _442
REMARK  187  A    between atoms: _444  and  _446
REMARK  188  A    between atoms: _446  and  _447
REMARK  189  A    between atoms: _446  and  _449
REMARK  190  A    between atoms: _449  and  _450
REMARK  191  A    between atoms: _460  and  _462
REMARK  192  A    between atoms: _462  and  _463
REMARK  193  A    between atoms: _465  and  _467
REMARK  194  A    between atoms: _467  and  _468
REMARK  195  A    between atoms: _467  and  _470
REMARK  196  A    between atoms: _470  and  _471
REMARK  197  A    between atoms: _471  and  _472
REMARK  198  A    between atoms: _475  and  _477
REMARK  199  A    between atoms: _477  and  _478
REMARK  200  A    between atoms: _480  and  _482
REMARK  201  A    between atoms: _482  and  _483
REMARK  202  A    between atoms: _482  and  _485
REMARK  203  A    between atoms: _485  and  _486
REMARK  204  A    between atoms: _487  and  _489
REMARK  205  A    between atoms: _489  and  _490
REMARK  206  A    between atoms: _493  and  _495
REMARK  207  A    between atoms: _495  and  _496
REMARK  208  A    between atoms: _495  and  _498
REMARK  209  A    between atoms: _498  and  _499
REMARK  210  A    between atoms: _499  and  _500
REMARK  211  A    between atoms: _505  and  _507
REMARK  212  A    between atoms: _507  and  _508
REMARK  213  A    between atoms: _507  and  _510
REMARK  214  A    between atoms: _510  and  _511
REMARK  215  A    between atoms: _511  and  _512
REMARK  216  A    between atoms: _512  and  _513
REMARK  217  A    between atoms: _523  and  _524
REMARK  218  A    between atoms: _529  and  _531
REMARK  219  A    between atoms: _531  and  _532
REMARK  220  A    between atoms: _534  and  _536
REMARK  221  A    between atoms: _536  and  _537
REMARK  222  A    between atoms: _536  and  _539
REMARK  223  A    between atoms: _542  and  _544
REMARK  224  A    between atoms: _544  and  _545
REMARK  225  A    between atoms: _544  and  _547
REMARK  226  A    between atoms: _547  and  _548
REMARK  227  A    between atoms: _553  and  _554
REMARK  228  A    between atoms: _556  and  _558
REMARK  229  A    between atoms: _558  and  _559
REMARK  230  A    between atoms: _558  and  _561
REMARK  231  A    between atoms: _561  and  _562
REMARK                            x       y       z     vdW  Elec       q    Type
REMARK                         _______ _______ _______ _____ _____    ______ ____
ROOT
ATOM      1  CA  VAL A   1      40.297 -34.517  31.273  0.00  0.00    +0.133 C 
ENDROOT
BRANCH   1   2
ATOM      2  CB  VAL A   1      39.802 -33.511  32.365  0.00  0.00    +0.023 C 
ATOM      3  CG2 VAL A   1      39.764 -34.148  33.753  0.00  0.00    +0.002 C 
ATOM      4  CG1 VAL A   1      40.644 -32.238  32.377  0.00  0.00    +0.002 C 
ENDBRANCH   1   2
BRANCH   1   5
ATOM      5  N   VAL A   1      40.095 -34.023  29.891  0.00  0.00    -0.239 NA
ATOM      6  H   VAL A   1      39.388 -33.275  29.738  0.00  0.00    +0.142 HD
ENDBRANCH   1   5
BRANCH   1   7
ATOM      7  C   VAL A   1      39.598 -35.886  31.351  0.00  0.00    +0.224 C 
ATOM      8  O   VAL A   1      38.369 -35.967  31.282  0.00  0.00    -0.287 OA
ENDBRANCH   1   7
TORSDOF 3
REMARK  Name = ../refined-set-2016/4x6m/4x6m_pocket.pdb
REMARK  231 active torsions:
REMARK  status: ('A' for Active; 'I' for Inactive)
REMARK    1  A    between atoms: _1  and  _5
REMARK    2  A    between atoms: _5  and  _6
REMARK    3  A    between atoms: _5  and  _8
REMARK    4  A    between atoms: _8  and  _9
REMARK    5  A    between atoms: _12  and  _14
REMARK    6  A    between atoms: _14  and  _15
REMARK    7  A    between atoms: _14  and  _17
REMARK    8  A    between atoms: _20  and  _22
REMARK    9  A    between atoms: _22  and  _23
REMARK   10  A    between atoms: _22  and  _25
REMARK   11  A    between atoms: _25  and  _26
REMARK   12  A    between atoms: _29  and  _31
REMARK   13  A    between atoms: _31  and  _32
REMARK   14  A    between atoms: _31  and  _34
REMARK   15  A    between atoms: _34  and  _35
REMARK   16  A    between atoms: _40  and  _42
REMARK   17  A    between atoms: _42  and  _43
REMARK   18  A    between atoms: _42  and  _45
REMARK   19  A    between atoms: _45  and  _46
REMARK   20  A    between atoms: _49  and  _51
REMARK   21  A    between atoms: _51  and  _52
REMARK   22  A    between atoms: _51  and  _54
REMARK   23  A    between atoms: _54  and  _55
REMARK   24  A    between atoms: _58  and  _60
REMARK   25  A    between atoms: _60  and  _61
REMARK   26  A    between atoms: _60  and  _63
REMARK   27  A    between atoms: _63  and  _64
REMARK   28  A    between atoms: _64  and  _65
REMARK   29  A    between atoms: _70  and  _72
REMARK   30  A    between atoms: _72  and  _73
REMARK   31  A    between atoms: _72  and  _75
REMARK   32  A    between atoms: _75  and  _76
REMARK   33  A    between atoms: _76  and  _77
REMARK   34  A    between atoms: _77  and  _78
REMARK   35  A    between atoms: _87  and  _89
REMARK   36  A    between atoms: _89  and  _90
REMARK   37  A    between atoms: _89  and  _92
REMARK   38  A    between atoms: _92  and  _93
REMARK   39  A    between atoms: _98  and  _100
REMARK   40  A    between atoms: _100  and  _101
REMARK   41  A    between atoms: _100  and  _103
REMARK   42  A    between atoms: _103  and  _104
REMARK   43  A    between atoms: _107  and  _109
REMARK   44  A    between atoms: _109  and  _110
REMARK   45  A    between atoms: _109  and  _112
REMARK   46  A    between atoms: _112  and  _113
REMARK   47  A    between atoms: _113  and  _148
REMARK   48  A    between atoms: _114  and  _116
REMARK   49  A    between atoms: _116  and  _117
REMARK   50  A    between atoms: _119  and  _121
REMARK   51  A    between atoms: _121  and  _122
REMARK   52  A    between atoms: _125  and  _127
REMARK   53  A    between atoms: _127  and  _128
REMARK   54  A    between atoms: _131  and  _133
REMARK   55  A    between atoms: _133  and  _134
REMARK   56  A    between atoms: _133  and  _136
REMARK   57  A    between atoms: _136  and  _137
REMARK   58  A    between atoms: _142  and  _144
REMARK   59  A    between atoms: _144  and  _145
REMARK   60  A    between atoms: _144  and  _147
REMARK   61  A    between atoms: _147  and  _148
REMARK   62  A    between atoms: _149  and  _151
REMARK   63  A    between atoms: _151  and  _152
REMARK   64  A    between atoms: _151  and  _154
REMARK   65  A    between atoms: _154  and  _155
REMARK   66  A    between atoms: _161  and  _163
REMARK   67  A    between atoms: _163  and  _164
REMARK   68  A    between atoms: _163  and  _166
REMARK   69  A    between atoms: _166  and  _167
REMARK   70  A    between atoms: _172  and  _173
REMARK   71  A    between atoms: _175  and  _177
REMARK   72  A    between atoms: _177  and  _178
REMARK   73  A    between atoms: _177  and  _180
REMARK   74  A    between atoms: _183  and  _185
REMARK   75  A    between atoms: _185  and  _186
REMARK   76  A    between atoms: _189  and  _191
REMARK   77  A    between atoms: _191  and  _192
REMARK   78  A    between atoms: _191  and  _194
REMARK   79  A    between atoms: _194  and  _195
REMARK   80  A    between atoms: _198  and  _200
REMARK   81  A    between atoms: _200  and  _201
REMARK   82  A    between atoms: _200  and  _203
REMARK   83  A    between atoms: _206  and  _208
REMARK   84  A    between atoms: _208  and  _209
REMARK   85  A    between atoms: _208  and  _211
REMARK   86  A    between atoms: _211  and  _212
REMARK   87  A    between atoms: _222  and  _224
REMARK   88  A    between atoms: _224  and  _225
REMARK   89  A    between atoms: _227  and  _229
REMARK   90  A    between atoms: _229  and  _230
REMARK   91  A    between atoms: _229  and  _232
REMARK   92  A    between atoms: _232  and  _233
REMARK   93  A    between atoms: _238  and  _239
REMARK   94  A    between atoms: _241  and  _243
REMARK   95  A    between atoms: _243  and  _244
REMARK   96  A    between atoms: _243  and  _246
REMARK   97  A    between atoms: _246  and  _247
REMARK   98  A    between atoms: _250  and  _252
REMARK   99  A    between atoms: _252  and  _253
REMARK  100  A    between atoms: _252  and  _255
REMARK  101  A    between atoms: _255  and  _256
REMARK  102  A    between atoms: _259  and  _261
REMARK  103  A    between atoms: _261  and  _262
REMARK  104  A    between atoms: _261  and  _264
REMARK  105  A    between atoms: _264  and  _265
REMARK  106  A    between atoms: _265  and  _266
REMARK  107  A    between atoms: _266  and  _267
REMARK  108  A    between atoms: _267  and  _268
REMARK  109  A    between atoms: _272  and  _274
REMARK  110  A    between atoms: _274  and  _275
REMARK  111  A    between atoms: _274  and  _277
REMARK  112  A    between atoms: _277  and  _278
REMARK  113  A    between atoms: _281  and  _283
REMARK  114  A    between atoms: _283  and  _284
REMARK  115  A    between atoms: _283  and  _286
REMARK  116  A    between atoms: _286  and  _287
REMARK  117  A    between atoms: _287  and  _288
REMARK  118  A    between atoms: _293  and  _295
REMARK  119  A    between atoms: _295  and  _296
REMARK  120  A    between atoms: _295  and  _298
REMARK  121  A    between atoms: _298  and  _299
REMARK  122  A    between atoms: _304  and  _305
REMARK  123  A    between atoms: _307  and  _309
REMARK  124  A    between atoms: _309  and  _310
REMARK  125  A    between atoms: _309  and  _312
REMARK  126  A    between atoms: _312  and  _313
REMARK  127  A    between atoms: _316  and  _318
REMARK  128  A    between atoms: _318  and  _319
REMARK  129  A    between atoms: _318  and  _321
REMARK  130  A    between atoms: _323  and  _325
REMARK  131  A    between atoms: _325  and  _326
REMARK  132  A    between atoms: _329  and  _331
REMARK  133  A    between atoms: _331  and  _332
REMARK  134  A    between atoms: _331  and  _334
REMARK  135  A    between atoms: _334  and  _335
REMARK  136  A    between atoms: _335  and  _336
REMARK  137  A    between atoms: _336  and  _337
REMARK  138  A    between atoms: _337  and  _338
REMARK  139  A    between atoms: _342  and  _344
REMARK  140  A    between atoms: _344  and  _345
REMARK  141  A    between atoms: _344  and  _347
REMARK  142  A    between atoms: _347  and  _348
REMARK  143  A    between atoms: _351  and  _353
REMARK  144  A    between atoms: _353  and  _354
REMARK  145  A    between atoms: _357  and  _359
REMARK  146  A    between atoms: _359  and  _360
REMARK  147  A    between atoms: _359  and  _362
REMARK  148  A    between atoms: _362  and  _363
REMARK  149  A    between atoms: _363  and  _486
REMARK  150  A    between atoms: _364  and  _366
REMARK  151  A    between atoms: _366  and  _367
REMARK  152  A    between atoms: _366  and  _369
REMARK  153  A    between atoms: _369  and  _370
REMARK  154  A    between atoms: _370  and  _371
REMARK  155  A    between atoms: _371  and  _372
REMARK  156  A    between atoms: _372  and  _373
REMARK  157  A    between atoms: _377  and  _379
REMARK  158  A    between atoms: _379  and  _380
REMARK  159  A    between atoms: _382  and  _384
REMARK  160  A    between atoms: _384  and  _385
REMARK  161  A    between atoms: _384  and  _387
REMARK  162  A    between atoms: _387  and  _388
REMARK  163  A    between atoms: _391  and  _393
REMARK  164  A    between atoms: _393  and  _394
REMARK  165  A    between atoms: _393  and  _396
REMARK  166  A    between atoms: _396  and  _397
REMARK  167  A    between atoms: _399  and  _401
REMARK  168  A    between atoms: _401  and  _402
REMARK  169  A    between atoms: _404  and  _406
REMARK  170  A    between atoms: _406  and  _407
REMARK  171  A    between atoms: _409  and  _411
REMARK  172  A    between atoms: _411  and  _412
REMARK  173  A    between atoms: _411  and  _414
REMARK  174  A    between atoms: _414  and  _415
REMARK  175  A    between atoms: _418  and  _420
REMARK  176  A    between atoms: _420  and  _421
REMARK  177  A    between atoms: _420  and  _423
REMARK  178  A    between atoms: _423  and  _424
REMARK  179  A    between atoms: _427  and  _429
REMARK  180  A    between atoms: _429  and  _430
REMARK  181  A    between atoms: _429  and  _432
REMARK  182  A    between atoms: _432  and  _433
REMARK  183  A    between atoms: _436  and  _438
REMARK  184  A    between atoms: _438  and  _439
REMARK  185  A    between atoms: _438  and  _441
REMARK  186  A    between atoms: _441  and  _442
REMARK  187  A    between atoms: _444  and  _446
REMARK  188  A    between atoms: _446  and  _447
REMARK  189  A    between atoms: _446  and  _449
REMARK  190  A    between atoms: _449  and  _450
REMARK  191  A    between atoms: _460  and  _462
REMARK  192  A    between atoms: _462  and  _463
REMARK  193  A    between atoms: _465  and  _467
REMARK  194  A    between atoms: _467  and  _468
REMARK  195  A    between atoms: _467  and  _470
REMARK  196  A    between atoms: _470  and  _471
REMARK  197  A    between atoms: _471  and  _472
REMARK  198  A    between atoms: _475  and  _477
REMARK  199  A    between atoms: _477  and  _478
REMARK  200  A    between atoms: _480  and  _482
REMARK  201  A    between atoms: _482  and  _483
REMARK  202  A    between atoms: _482  and  _485
REMARK  203  A    between atoms: _485  and  _486
REMARK  204  A    between atoms: _487  and  _489
REMARK  205  A    between atoms: _489  and  _490
REMARK  206  A    between atoms: _493  and  _495
REMARK  207  A    between atoms: _495  and  _496
REMARK  208  A    between atoms: _495  and  _498
REMARK  209  A    between atoms: _498  and  _499
REMARK  210  A    between atoms: _499  and  _500
REMARK  211  A    between atoms: _505  and  _507
REMARK  212  A    between atoms: _507  and  _508
REMARK  213  A    between atoms: _507  and  _510
REMARK  214  A    between atoms: _510  and  _511
REMARK  215  A    between atoms: _511  and  _512
REMARK  216  A    between atoms: _512  and  _513
REMARK  217  A    between atoms: _523  and  _524
REMARK  218  A    between atoms: _529  and  _531
REMARK  219  A    between atoms: _531  and  _532
REMARK  220  A    between atoms: _534  and  _536
REMARK  221  A    between atoms: _536  and  _537
REMARK  222  A    between atoms: _536  and  _539
REMARK  223  A    between atoms: _542  and  _544
REMARK  224  A    between atoms: _544  and  _545
REMARK  225  A    between atoms: _544  and  _547
REMARK  226  A    between atoms: _547  and  _548
REMARK  227  A    between atoms: _553  and  _554
REMARK  228  A    between atoms: _556  and  _558
REMARK  229  A    between atoms: _558  and  _559
REMARK  230  A    between atoms: _558  and  _561
REMARK  231  A    between atoms: _561  and  _562
REMARK                            x       y       z     vdW  Elec       q    Type
REMARK                         _______ _______ _______ _____ _____    ______ ____
ROOT
ATOM      1  CA  ALA A   1      30.977 -23.069  25.490  0.00  0.00    +0.133 C 
ATOM      2  CB  ALA A   1      32.297 -22.394  25.880  0.00  0.00    +0.027 C 
ENDROOT
BRANCH   1   3
ATOM      3  N   ALA A   1      31.232 -24.324  24.783  0.00  0.00    -0.239 NA
ATOM      4  H   ALA A   1      32.219 -24.636  24.686  0.00  0.00    +0.142 HD
ENDBRANCH   1   3
BRANCH   1   5
ATOM      5  C   ALA A   1      30.088 -22.131  24.687  0.00  0.00    +0.224 C 
ATOM      6  O   ALA A   1      29.093 -21.651  25.218  0.00  0.00    -0.287 OA
ENDBRANCH   1   5
TORSDOF 2
REMARK  Name = ../refined-set-2016/4x6m/4x6m_pocket.pdb
REMARK  231 active torsions:
REMARK  status: ('A' for Active; 'I' for Inactive)
REMARK    1  A    between atoms: _1  and  _5
REMARK    2  A    between atoms: _5  and  _6
REMARK    3  A    between atoms: _5  and  _8
REMARK    4  A    between atoms: _8  and  _9
REMARK    5  A    between atoms: _12  and  _14
REMARK    6  A    between atoms: _14  and  _15
REMARK    7  A    between atoms: _14  and  _17
REMARK    8  A    between atoms: _20  and  _22
REMARK    9  A    between atoms: _22  and  _23
REMARK   10  A    between atoms: _22  and  _25
REMARK   11  A    between atoms: _25  and  _26
REMARK   12  A    between atoms: _29  and  _31
REMARK   13  A    between atoms: _31  and  _32
REMARK   14  A    between atoms: _31  and  _34
REMARK   15  A    between atoms: _34  and  _35
REMARK   16  A    between atoms: _40  and  _42
REMARK   17  A    between atoms: _42  and  _43
REMARK   18  A    between atoms: _42  and  _45
REMARK   19  A    between atoms: _45  and  _46
REMARK   20  A    between atoms: _49  and  _51
REMARK   21  A    between atoms: _51  and  _52
REMARK   22  A    between atoms: _51  and  _54
REMARK   23  A    between atoms: _54  and  _55
REMARK   24  A    between atoms: _58  and  _60
REMARK   25  A    between atoms: _60  and  _61
REMARK   26  A    between atoms: _60  and  _63
REMARK   27  A    between atoms: _63  and  _64
REMARK   28  A    between atoms: _64  and  _65
REMARK   29  A    between atoms: _70  and  _72
REMARK   30  A    between atoms: _72  and  _73
REMARK   31  A    between atoms: _72  and  _75
REMARK   32  A    between atoms: _75  and  _76
REMARK   33  A    between atoms: _76  and  _77
REMARK   34  A    between atoms: _77  and  _78
REMARK   35  A    between atoms: _87  and  _89
REMARK   36  A    between atoms: _89  and  _90
REMARK   37  A    between atoms: _89  and  _92
REMARK   38  A    between atoms: _92  and  _93
REMARK   39  A    between atoms: _98  and  _100
REMARK   40  A    between atoms: _100  and  _101
REMARK   41  A    between atoms: _100  and  _103
REMARK   42  A    between atoms: _103  and  _104
REMARK   43  A    between atoms: _107  and  _109
REMARK   44  A    between atoms: _109  and  _110
REMARK   45  A    between atoms: _109  and  _112
REMARK   46  A    between atoms: _112  and  _113
REMARK   47  A    between atoms: _113  and  _148
REMARK   48  A    between atoms: _114  and  _116
REMARK   49  A    between atoms: _116  and  _117
REMARK   50  A    between atoms: _119  and  _121
REMARK   51  A    between atoms: _121  and  _122
REMARK   52  A    between atoms: _125  and  _127
REMARK   53  A    between atoms: _127  and  _128
REMARK   54  A    between atoms: _131  and  _133
REMARK   55  A    between atoms: _133  and  _134
REMARK   56  A    between atoms: _133  and  _136
REMARK   57  A    between atoms: _136  and  _137
REMARK   58  A    between atoms: _142  and  _144
REMARK   59  A    between atoms: _144  and  _145
REMARK   60  A    between atoms: _144  and  _147
REMARK   61  A    between atoms: _147  and  _148
REMARK   62  A    between atoms: _149  and  _151
REMARK   63  A    between atoms: _151  and  _152
REMARK   64  A    between atoms: _151  and  _154
REMARK   65  A    between atoms: _154  and  _155
REMARK   66  A    between atoms: _161  and  _163
REMARK   67  A    between atoms: _163  and  _164
REMARK   68  A    between atoms: _163  and  _166
REMARK   69  A    between atoms: _166  and  _167
REMARK   70  A    between atoms: _172  and  _173
REMARK   71  A    between atoms: _175  and  _177
REMARK   72  A    between atoms: _177  and  _178
REMARK   73  A    between atoms: _177  and  _180
REMARK   74  A    between atoms: _183  and  _185
REMARK   75  A    between atoms: _185  and  _186
REMARK   76  A    between atoms: _189  and  _191
REMARK   77  A    between atoms: _191  and  _192
REMARK   78  A    between atoms: _191  and  _194
REMARK   79  A    between atoms: _194  and  _195
REMARK   80  A    between atoms: _198  and  _200
REMARK   81  A    between atoms: _200  and  _201
REMARK   82  A    between atoms: _200  and  _203
REMARK   83  A    between atoms: _206  and  _208
REMARK   84  A    between atoms: _208  and  _209
REMARK   85  A    between atoms: _208  and  _211
REMARK   86  A    between atoms: _211  and  _212
REMARK   87  A    between atoms: _222  and  _224
REMARK   88  A    between atoms: _224  and  _225
REMARK   89  A    between atoms: _227  and  _229
REMARK   90  A    between atoms: _229  and  _230
REMARK   91  A    between atoms: _229  and  _232
REMARK   92  A    between atoms: _232  and  _233
REMARK   93  A    between atoms: _238  and  _239
REMARK   94  A    between atoms: _241  and  _243
REMARK   95  A    between atoms: _243  and  _244
REMARK   96  A    between atoms: _243  and  _246
REMARK   97  A    between atoms: _246  and  _247
REMARK   98  A    between atoms: _250  and  _252
REMARK   99  A    between atoms: _252  and  _253
REMARK  100  A    between atoms: _252  and  _255
REMARK  101  A    between atoms: _255  and  _256
REMARK  102  A    between atoms: _259  and  _261
REMARK  103  A    between atoms: _261  and  _262
REMARK  104  A    between atoms: _261  and  _264
REMARK  105  A    between atoms: _264  and  _265
REMARK  106  A    between atoms: _265  and  _266
REMARK  107  A    between atoms: _266  and  _267
REMARK  108  A    between atoms: _267  and  _268
REMARK  109  A    between atoms: _272  and  _274
REMARK  110  A    between atoms: _274  and  _275
REMARK  111  A    between atoms: _274  and  _277
REMARK  112  A    between atoms: _277  and  _278
REMARK  113  A    between atoms: _281  and  _283
REMARK  114  A    between atoms: _283  and  _284
REMARK  115  A    between atoms: _283  and  _286
REMARK  116  A    between atoms: _286  and  _287
REMARK  117  A    between atoms: _287  and  _288
REMARK  118  A    between atoms: _293  and  _295
REMARK  119  A    between atoms: _295  and  _296
REMARK  120  A    between atoms: _295  and  _298
REMARK  121  A    between atoms: _298  and  _299
REMARK  122  A    between atoms: _304  and  _305
REMARK  123  A    between atoms: _307  and  _309
REMARK  124  A    between atoms: _309  and  _310
REMARK  125  A    between atoms: _309  and  _312
REMARK  126  A    between atoms: _312  and  _313
REMARK  127  A    between atoms: _316  and  _318
REMARK  128  A    between atoms: _318  and  _319
REMARK  129  A    between atoms: _318  and  _321
REMARK  130  A    between atoms: _323  and  _325
REMARK  131  A    between atoms: _325  and  _326
REMARK  132  A    between atoms: _329  and  _331
REMARK  133  A    between atoms: _331  and  _332
REMARK  134  A    between atoms: _331  and  _334
REMARK  135  A    between atoms: _334  and  _335
REMARK  136  A    between atoms: _335  and  _336
REMARK  137  A    between atoms: _336  and  _337
REMARK  138  A    between atoms: _337  and  _338
REMARK  139  A    between atoms: _342  and  _344
REMARK  140  A    between atoms: _344  and  _345
REMARK  141  A    between atoms: _344  and  _347
REMARK  142  A    between atoms: _347  and  _348
REMARK  143  A    between atoms: _351  and  _353
REMARK  144  A    between atoms: _353  and  _354
REMARK  145  A    between atoms: _357  and  _359
REMARK  146  A    between atoms: _359  and  _360
REMARK  147  A    between atoms: _359  and  _362
REMARK  148  A    between atoms: _362  and  _363
REMARK  149  A    between atoms: _363  and  _486
REMARK  150  A    between atoms: _364  and  _366
REMARK  151  A    between atoms: _366  and  _367
REMARK  152  A    between atoms: _366  and  _369
REMARK  153  A    between atoms: _369  and  _370
REMARK  154  A    between atoms: _370  and  _371
REMARK  155  A    between atoms: _371  and  _372
REMARK  156  A    between atoms: _372  and  _373
REMARK  157  A    between atoms: _377  and  _379
REMARK  158  A    between atoms: _379  and  _380
REMARK  159  A    between atoms: _382  and  _384
REMARK  160  A    between atoms: _384  and  _385
REMARK  161  A    between atoms: _384  and  _387
REMARK  162  A    between atoms: _387  and  _388
REMARK  163  A    between atoms: _391  and  _393
REMARK  164  A    between atoms: _393  and  _394
REMARK  165  A    between atoms: _393  and  _396
REMARK  166  A    between atoms: _396  and  _397
REMARK  167  A    between atoms: _399  and  _401
REMARK  168  A    between atoms: _401  and  _402
REMARK  169  A    between atoms: _404  and  _406
REMARK  170  A    between atoms: _406  and  _407
REMARK  171  A    between atoms: _409  and  _411
REMARK  172  A    between atoms: _411  and  _412
REMARK  173  A    between atoms: _411  and  _414
REMARK  174  A    between atoms: _414  and  _415
REMARK  175  A    between atoms: _418  and  _420
REMARK  176  A    between atoms: _420  and  _421
REMARK  177  A    between atoms: _420  and  _423
REMARK  178  A    between atoms: _423  and  _424
REMARK  179  A    between atoms: _427  and  _429
REMARK  180  A    between atoms: _429  and  _430
REMARK  181  A    between atoms: _429  and  _432
REMARK  182  A    between atoms: _432  and  _433
REMARK  183  A    between atoms: _436  and  _438
REMARK  184  A    between atoms: _438  and  _439
REMARK  185  A    between atoms: _438  and  _441
REMARK  186  A    between atoms: _441  and  _442
REMARK  187  A    between atoms: _444  and  _446
REMARK  188  A    between atoms: _446  and  _447
REMARK  189  A    between atoms: _446  and  _449
REMARK  190  A    between atoms: _449  and  _450
REMARK  191  A    between atoms: _460  and  _462
REMARK  192  A    between atoms: _462  and  _463
REMARK  193  A    between atoms: _465  and  _467
REMARK  194  A    between atoms: _467  and  _468
REMARK  195  A    between atoms: _467  and  _470
REMARK  196  A    between atoms: _470  and  _471
REMARK  197  A    between atoms: _471  and  _472
REMARK  198  A    between atoms: _475  and  _477
REMARK  199  A    between atoms: _477  and  _478
REMARK  200  A    between atoms: _480  and  _482
REMARK  201  A    between atoms: _482  and  _483
REMARK  202  A    between atoms: _482  and  _485
REMARK  203  A    between atoms: _485  and  _486
REMARK  204  A    between atoms: _487  and  _489
REMARK  205  A    between atoms: _489  and  _490
REMARK  206  A    between atoms: _493  and  _495
REMARK  207  A    between atoms: _495  and  _496
REMARK  208  A    between atoms: _495  and  _498
REMARK  209  A    between atoms: _498  and  _499
REMARK  210  A    between atoms: _499  and  _500
REMARK  211  A    between atoms: _505  and  _507
REMARK  212  A    between atoms: _507  and  _508
REMARK  213  A    between atoms: _507  and  _510
REMARK  214  A    between atoms: _510  and  _511
REMARK  215  A    between atoms: _511  and  _512
REMARK  216  A    between atoms: _512  and  _513
REMARK  217  A    between atoms: _523  and  _524
REMARK  218  A    between atoms: _529  and  _531
REMARK  219  A    between atoms: _531  and  _532
REMARK  220  A    between atoms: _534  and  _536
REMARK  221  A    between atoms: _536  and  _537
REMARK  222  A    between atoms: _536  and  _539
REMARK  223  A    between atoms: _542  and  _544
REMARK  224  A    between atoms: _544  and  _545
REMARK  225  A    between atoms: _544  and  _547
REMARK  226  A    between atoms: _547  and  _548
REMARK  227  A    between atoms: _553  and  _554
REMARK  228  A    between atoms: _556  and  _558
REMARK  229  A    between atoms: _558  and  _559
REMARK  230  A    between atoms: _558  and  _561
REMARK  231  A    between atoms: _561  and  _562
REMARK                            x       y       z     vdW  Elec       q    Type
REMARK                         _______ _______ _______ _____ _____    ______ ____
ROOT
ATOM      1  CA  ASP A   1      28.668 -24.570  29.961  0.00  0.00    +0.144 C 
ENDROOT
BRANCH   1   2
ATOM      2  N   ASP A   1      27.280 -24.575  29.515  0.00  0.00    -0.239 NA
ATOM      3  H   ASP A   1      26.859 -23.675  29.207  0.00  0.00    +0.142 HD
ENDBRANCH   1   2
BRANCH   1   4
ATOM      4  C   ASP A   1      28.702 -24.488  31.464  0.00  0.00    +0.225 C 
ATOM      5  O   ASP A   1      29.038 -23.458  32.062  0.00  0.00    -0.287 OA
ENDBRANCH   1   4
BRANCH   1   6
ATOM      6  CB  ASP A   1      29.476 -23.469  29.267  0.00  0.00    +0.139 C 
BRANCH   6   7
ATOM      7  CG  ASP A   1      30.959 -23.621  29.457  0.00  0.00    +0.367 C 
ATOM      8  OD2 ASP A   1      31.402 -24.733  29.845  0.00  0.00    -0.246 OA
ATOM      9  OD1 ASP A   1      31.685 -22.631  29.221  0.00  0.00    -0.246 OA
ENDBRANCH   6   7
ENDBRANCH   1   6
TORSDOF 4
REMARK  Name = ../refined-set-2016/4x6m/4x6m_pocket.pdb
REMARK  231 active torsions:
REMARK  status: ('A' for Active; 'I' for Inactive)
REMARK    1  A    between atoms: _1  and  _5
REMARK    2  A    between atoms: _5  and  _6
REMARK    3  A    between atoms: _5  and  _8
REMARK    4  A    between atoms: _8  and  _9
REMARK    5  A    between atoms: _12  and  _14
REMARK    6  A    between atoms: _14  and  _15
REMARK    7  A    between atoms: _14  and  _17
REMARK    8  A    between atoms: _20  and  _22
REMARK    9  A    between atoms: _22  and  _23
REMARK   10  A    between atoms: _22  and  _25
REMARK   11  A    between atoms: _25  and  _26
REMARK   12  A    between atoms: _29  and  _31
REMARK   13  A    between atoms: _31  and  _32
REMARK   14  A    between atoms: _31  and  _34
REMARK   15  A    between atoms: _34  and  _35
REMARK   16  A    between atoms: _40  and  _42
REMARK   17  A    between atoms: _42  and  _43
REMARK   18  A    between atoms: _42  and  _45
REMARK   19  A    between atoms: _45  and  _46
REMARK   20  A    between atoms: _49  and  _51
REMARK   21  A    between atoms: _51  and  _52
REMARK   22  A    between atoms: _51  and  _54
REMARK   23  A    between atoms: _54  and  _55
REMARK   24  A    between atoms: _58  and  _60
REMARK   25  A    between atoms: _60  and  _61
REMARK   26  A    between atoms: _60  and  _63
REMARK   27  A    between atoms: _63  and  _64
REMARK   28  A    between atoms: _64  and  _65
REMARK   29  A    between atoms: _70  and  _72
REMARK   30  A    between atoms: _72  and  _73
REMARK   31  A    between atoms: _72  and  _75
REMARK   32  A    between atoms: _75  and  _76
REMARK   33  A    between atoms: _76  and  _77
REMARK   34  A    between atoms: _77  and  _78
REMARK   35  A    between atoms: _87  and  _89
REMARK   36  A    between atoms: _89  and  _90
REMARK   37  A    between atoms: _89  and  _92
REMARK   38  A    between atoms: _92  and  _93
REMARK   39  A    between atoms: _98  and  _100
REMARK   40  A    between atoms: _100  and  _101
REMARK   41  A    between atoms: _100  and  _103
REMARK   42  A    between atoms: _103  and  _104
REMARK   43  A    between atoms: _107  and  _109
REMARK   44  A    between atoms: _109  and  _110
REMARK   45  A    between atoms: _109  and  _112
REMARK   46  A    between atoms: _112  and  _113
REMARK   47  A    between atoms: _113  and  _148
REMARK   48  A    between atoms: _114  and  _116
REMARK   49  A    between atoms: _116  and  _117
REMARK   50  A    between atoms: _119  and  _121
REMARK   51  A    between atoms: _121  and  _122
REMARK   52  A    between atoms: _125  and  _127
REMARK   53  A    between atoms: _127  and  _128
REMARK   54  A    between atoms: _131  and  _133
REMARK   55  A    between atoms: _133  and  _134
REMARK   56  A    between atoms: _133  and  _136
REMARK   57  A    between atoms: _136  and  _137
REMARK   58  A    between atoms: _142  and  _144
REMARK   59  A    between atoms: _144  and  _145
REMARK   60  A    between atoms: _144  and  _147
REMARK   61  A    between atoms: _147  and  _148
REMARK   62  A    between atoms: _149  and  _151
REMARK   63  A    between atoms: _151  and  _152
REMARK   64  A    between atoms: _151  and  _154
REMARK   65  A    between atoms: _154  and  _155
REMARK   66  A    between atoms: _161  and  _163
REMARK   67  A    between atoms: _163  and  _164
REMARK   68  A    between atoms: _163  and  _166
REMARK   69  A    between atoms: _166  and  _167
REMARK   70  A    between atoms: _172  and  _173
REMARK   71  A    between atoms: _175  and  _177
REMARK   72  A    between atoms: _177  and  _178
REMARK   73  A    between atoms: _177  and  _180
REMARK   74  A    between atoms: _183  and  _185
REMARK   75  A    between atoms: _185  and  _186
REMARK   76  A    between atoms: _189  and  _191
REMARK   77  A    between atoms: _191  and  _192
REMARK   78  A    between atoms: _191  and  _194
REMARK   79  A    between atoms: _194  and  _195
REMARK   80  A    between atoms: _198  and  _200
REMARK   81  A    between atoms: _200  and  _201
REMARK   82  A    between atoms: _200  and  _203
REMARK   83  A    between atoms: _206  and  _208
REMARK   84  A    between atoms: _208  and  _209
REMARK   85  A    between atoms: _208  and  _211
REMARK   86  A    between atoms: _211  and  _212
REMARK   87  A    between atoms: _222  and  _224
REMARK   88  A    between atoms: _224  and  _225
REMARK   89  A    between atoms: _227  and  _229
REMARK   90  A    between atoms: _229  and  _230
REMARK   91  A    between atoms: _229  and  _232
REMARK   92  A    between atoms: _232  and  _233
REMARK   93  A    between atoms: _238  and  _239
REMARK   94  A    between atoms: _241  and  _243
REMARK   95  A    between atoms: _243  and  _244
REMARK   96  A    between atoms: _243  and  _246
REMARK   97  A    between atoms: _246  and  _247
REMARK   98  A    between atoms: _250  and  _252
REMARK   99  A    between atoms: _252  and  _253
REMARK  100  A    between atoms: _252  and  _255
REMARK  101  A    between atoms: _255  and  _256
REMARK  102  A    between atoms: _259  and  _261
REMARK  103  A    between atoms: _261  and  _262
REMARK  104  A    between atoms: _261  and  _264
REMARK  105  A    between atoms: _264  and  _265
REMARK  106  A    between atoms: _265  and  _266
REMARK  107  A    between atoms: _266  and  _267
REMARK  108  A    between atoms: _267  and  _268
REMARK  109  A    between atoms: _272  and  _274
REMARK  110  A    between atoms: _274  and  _275
REMARK  111  A    between atoms: _274  and  _277
REMARK  112  A    between atoms: _277  and  _278
REMARK  113  A    between atoms: _281  and  _283
REMARK  114  A    between atoms: _283  and  _284
REMARK  115  A    between atoms: _283  and  _286
REMARK  116  A    between atoms: _286  and  _287
REMARK  117  A    between atoms: _287  and  _288
REMARK  118  A    between atoms: _293  and  _295
REMARK  119  A    between atoms: _295  and  _296
REMARK  120  A    between atoms: _295  and  _298
REMARK  121  A    between atoms: _298  and  _299
REMARK  122  A    between atoms: _304  and  _305
REMARK  123  A    between atoms: _307  and  _309
REMARK  124  A    between atoms: _309  and  _310
REMARK  125  A    between atoms: _309  and  _312
REMARK  126  A    between atoms: _312  and  _313
REMARK  127  A    between atoms: _316  and  _318
REMARK  128  A    between atoms: _318  and  _319
REMARK  129  A    between atoms: _318  and  _321
REMARK  130  A    between atoms: _323  and  _325
REMARK  131  A    between atoms: _325  and  _326
REMARK  132  A    between atoms: _329  and  _331
REMARK  133  A    between atoms: _331  and  _332
REMARK  134  A    between atoms: _331  and  _334
REMARK  135  A    between atoms: _334  and  _335
REMARK  136  A    between atoms: _335  and  _336
REMARK  137  A    between atoms: _336  and  _337
REMARK  138  A    between atoms: _337  and  _338
REMARK  139  A    between atoms: _342  and  _344
REMARK  140  A    between atoms: _344  and  _345
REMARK  141  A    between atoms: _344  and  _347
REMARK  142  A    between atoms: _347  and  _348
REMARK  143  A    between atoms: _351  and  _353
REMARK  144  A    between atoms: _353  and  _354
REMARK  145  A    between atoms: _357  and  _359
REMARK  146  A    between atoms: _359  and  _360
REMARK  147  A    between atoms: _359  and  _362
REMARK  148  A    between atoms: _362  and  _363
REMARK  149  A    between atoms: _363  and  _486
REMARK  150  A    between atoms: _364  and  _366
REMARK  151  A    between atoms: _366  and  _367
REMARK  152  A    between atoms: _366  and  _369
REMARK  153  A    between atoms: _369  and  _370
REMARK  154  A    between atoms: _370  and  _371
REMARK  155  A    between atoms: _371  and  _372
REMARK  156  A    between atoms: _372  and  _373
REMARK  157  A    between atoms: _377  and  _379
REMARK  158  A    between atoms: _379  and  _380
REMARK  159  A    between atoms: _382  and  _384
REMARK  160  A    between atoms: _384  and  _385
REMARK  161  A    between atoms: _384  and  _387
REMARK  162  A    between atoms: _387  and  _388
REMARK  163  A    between atoms: _391  and  _393
REMARK  164  A    between atoms: _393  and  _394
REMARK  165  A    between atoms: _393  and  _396
REMARK  166  A    between atoms: _396  and  _397
REMARK  167  A    between atoms: _399  and  _401
REMARK  168  A    between atoms: _401  and  _402
REMARK  169  A    between atoms: _404  and  _406
REMARK  170  A    between atoms: _406  and  _407
REMARK  171  A    between atoms: _409  and  _411
REMARK  172  A    between atoms: _411  and  _412
REMARK  173  A    between atoms: _411  and  _414
REMARK  174  A    between atoms: _414  and  _415
REMARK  175  A    between atoms: _418  and  _420
REMARK  176  A    between atoms: _420  and  _421
REMARK  177  A    between atoms: _420  and  _423
REMARK  178  A    between atoms: _423  and  _424
REMARK  179  A    between atoms: _427  and  _429
REMARK  180  A    between atoms: _429  and  _430
REMARK  181  A    between atoms: _429  and  _432
REMARK  182  A    between atoms: _432  and  _433
REMARK  183  A    between atoms: _436  and  _438
REMARK  184  A    between atoms: _438  and  _439
REMARK  185  A    between atoms: _438  and  _441
REMARK  186  A    between atoms: _441  and  _442
REMARK  187  A    between atoms: _444  and  _446
REMARK  188  A    between atoms: _446  and  _447
REMARK  189  A    between atoms: _446  and  _449
REMARK  190  A    between atoms: _449  and  _450
REMARK  191  A    between atoms: _460  and  _462
REMARK  192  A    between atoms: _462  and  _463
REMARK  193  A    between atoms: _465  and  _467
REMARK  194  A    between atoms: _467  and  _468
REMARK  195  A    between atoms: _467  and  _470
REMARK  196  A    between atoms: _470  and  _471
REMARK  197  A    between atoms: _471  and  _472
REMARK  198  A    between atoms: _475  and  _477
REMARK  199  A    between atoms: _477  and  _478
REMARK  200  A    between atoms: _480  and  _482
REMARK  201  A    between atoms: _482  and  _483
REMARK  202  A    between atoms: _482  and  _485
REMARK  203  A    between atoms: _485  and  _486
REMARK  204  A    between atoms: _487  and  _489
REMARK  205  A    between atoms: _489  and  _490
REMARK  206  A    between atoms: _493  and  _495
REMARK  207  A    between atoms: _495  and  _496
REMARK  208  A    between atoms: _495  and  _498
REMARK  209  A    between atoms: _498  and  _499
REMARK  210  A    between atoms: _499  and  _500
REMARK  211  A    between atoms: _505  and  _507
REMARK  212  A    between atoms: _507  and  _508
REMARK  213  A    between atoms: _507  and  _510
REMARK  214  A    between atoms: _510  and  _511
REMARK  215  A    between atoms: _511  and  _512
REMARK  216  A    between atoms: _512  and  _513
REMARK  217  A    between atoms: _523  and  _524
REMARK  218  A    between atoms: _529  and  _531
REMARK  219  A    between atoms: _531  and  _532
REMARK  220  A    between atoms: _534  and  _536
REMARK  221  A    between atoms: _536  and  _537
REMARK  222  A    between atoms: _536  and  _539
REMARK  223  A    between atoms: _542  and  _544
REMARK  224  A    between atoms: _544  and  _545
REMARK  225  A    between atoms: _544  and  _547
REMARK  226  A    between atoms: _547  and  _548
REMARK  227  A    between atoms: _553  and  _554
REMARK  228  A    between atoms: _556  and  _558
REMARK  229  A    between atoms: _558  and  _559
REMARK  230  A    between atoms: _558  and  _561
REMARK  231  A    between atoms: _561  and  _562
REMARK                            x       y       z     vdW  Elec       q    Type
REMARK                         _______ _______ _______ _____ _____    ______ ____
ROOT
ATOM      1  CA  VAL A   1      34.590 -10.908  37.584  0.00  0.00    +0.133 C 
ENDROOT
BRANCH   1   2
ATOM      2  CB  VAL A   1      34.587 -10.928  36.034  0.00  0.00    +0.023 C 
ATOM      3  CG2 VAL A   1      34.944 -12.314  35.519  0.00  0.00    +0.002 C 
ATOM      4  CG1 VAL A   1      35.491  -9.848  35.418  0.00  0.00    +0.002 C 
ENDBRANCH   1   2
BRANCH   1   5
ATOM      5  N   VAL A   1      33.950  -9.746  38.185  0.00  0.00    -0.239 NA
ATOM      6  H   VAL A   1      34.273  -8.814  37.857  0.00  0.00    +0.142 HD
ENDBRANCH   1   5
BRANCH   1   7
ATOM      7  C   VAL A   1      35.974 -11.054  38.223  0.00  0.00    +0.224 C 
ATOM      8  O   VAL A   1      36.706 -10.074  38.347  0.00  0.00    -0.287 OA
ENDBRANCH   1   7
TORSDOF 3
REMARK  Name = ../refined-set-2016/4x6m/4x6m_pocket.pdb
REMARK  231 active torsions:
REMARK  status: ('A' for Active; 'I' for Inactive)
REMARK    1  A    between atoms: _1  and  _5
REMARK    2  A    between atoms: _5  and  _6
REMARK    3  A    between atoms: _5  and  _8
REMARK    4  A    between atoms: _8  and  _9
REMARK    5  A    between atoms: _12  and  _14
REMARK    6  A    between atoms: _14  and  _15
REMARK    7  A    between atoms: _14  and  _17
REMARK    8  A    between atoms: _20  and  _22
REMARK    9  A    between atoms: _22  and  _23
REMARK   10  A    between atoms: _22  and  _25
REMARK   11  A    between atoms: _25  and  _26
REMARK   12  A    between atoms: _29  and  _31
REMARK   13  A    between atoms: _31  and  _32
REMARK   14  A    between atoms: _31  and  _34
REMARK   15  A    between atoms: _34  and  _35
REMARK   16  A    between atoms: _40  and  _42
REMARK   17  A    between atoms: _42  and  _43
REMARK   18  A    between atoms: _42  and  _45
REMARK   19  A    between atoms: _45  and  _46
REMARK   20  A    between atoms: _49  and  _51
REMARK   21  A    between atoms: _51  and  _52
REMARK   22  A    between atoms: _51  and  _54
REMARK   23  A    between atoms: _54  and  _55
REMARK   24  A    between atoms: _58  and  _60
REMARK   25  A    between atoms: _60  and  _61
REMARK   26  A    between atoms: _60  and  _63
REMARK   27  A    between atoms: _63  and  _64
REMARK   28  A    between atoms: _64  and  _65
REMARK   29  A    between atoms: _70  and  _72
REMARK   30  A    between atoms: _72  and  _73
REMARK   31  A    between atoms: _72  and  _75
REMARK   32  A    between atoms: _75  and  _76
REMARK   33  A    between atoms: _76  and  _77
REMARK   34  A    between atoms: _77  and  _78
REMARK   35  A    between atoms: _87  and  _89
REMARK   36  A    between atoms: _89  and  _90
REMARK   37  A    between atoms: _89  and  _92
REMARK   38  A    between atoms: _92  and  _93
REMARK   39  A    between atoms: _98  and  _100
REMARK   40  A    between atoms: _100  and  _101
REMARK   41  A    between atoms: _100  and  _103
REMARK   42  A    between atoms: _103  and  _104
REMARK   43  A    between atoms: _107  and  _109
REMARK   44  A    between atoms: _109  and  _110
REMARK   45  A    between atoms: _109  and  _112
REMARK   46  A    between atoms: _112  and  _113
REMARK   47  A    between atoms: _113  and  _148
REMARK   48  A    between atoms: _114  and  _116
REMARK   49  A    between atoms: _116  and  _117
REMARK   50  A    between atoms: _119  and  _121
REMARK   51  A    between atoms: _121  and  _122
REMARK   52  A    between atoms: _125  and  _127
REMARK   53  A    between atoms: _127  and  _128
REMARK   54  A    between atoms: _131  and  _133
REMARK   55  A    between atoms: _133  and  _134
REMARK   56  A    between atoms: _133  and  _136
REMARK   57  A    between atoms: _136  and  _137
REMARK   58  A    between atoms: _142  and  _144
REMARK   59  A    between atoms: _144  and  _145
REMARK   60  A    between atoms: _144  and  _147
REMARK   61  A    between atoms: _147  and  _148
REMARK   62  A    between atoms: _149  and  _151
REMARK   63  A    between atoms: _151  and  _152
REMARK   64  A    between atoms: _151  and  _154
REMARK   65  A    between atoms: _154  and  _155
REMARK   66  A    between atoms: _161  and  _163
REMARK   67  A    between atoms: _163  and  _164
REMARK   68  A    between atoms: _163  and  _166
REMARK   69  A    between atoms: _166  and  _167
REMARK   70  A    between atoms: _172  and  _173
REMARK   71  A    between atoms: _175  and  _177
REMARK   72  A    between atoms: _177  and  _178
REMARK   73  A    between atoms: _177  and  _180
REMARK   74  A    between atoms: _183  and  _185
REMARK   75  A    between atoms: _185  and  _186
REMARK   76  A    between atoms: _189  and  _191
REMARK   77  A    between atoms: _191  and  _192
REMARK   78  A    between atoms: _191  and  _194
REMARK   79  A    between atoms: _194  and  _195
REMARK   80  A    between atoms: _198  and  _200
REMARK   81  A    between atoms: _200  and  _201
REMARK   82  A    between atoms: _200  and  _203
REMARK   83  A    between atoms: _206  and  _208
REMARK   84  A    between atoms: _208  and  _209
REMARK   85  A    between atoms: _208  and  _211
REMARK   86  A    between atoms: _211  and  _212
REMARK   87  A    between atoms: _222  and  _224
REMARK   88  A    between atoms: _224  and  _225
REMARK   89  A    between atoms: _227  and  _229
REMARK   90  A    between atoms: _229  and  _230
REMARK   91  A    between atoms: _229  and  _232
REMARK   92  A    between atoms: _232  and  _233
REMARK   93  A    between atoms: _238  and  _239
REMARK   94  A    between atoms: _241  and  _243
REMARK   95  A    between atoms: _243  and  _244
REMARK   96  A    between atoms: _243  and  _246
REMARK   97  A    between atoms: _246  and  _247
REMARK   98  A    between atoms: _250  and  _252
REMARK   99  A    between atoms: _252  and  _253
REMARK  100  A    between atoms: _252  and  _255
REMARK  101  A    between atoms: _255  and  _256
REMARK  102  A    between atoms: _259  and  _261
REMARK  103  A    between atoms: _261  and  _262
REMARK  104  A    between atoms: _261  and  _264
REMARK  105  A    between atoms: _264  and  _265
REMARK  106  A    between atoms: _265  and  _266
REMARK  107  A    between atoms: _266  and  _267
REMARK  108  A    between atoms: _267  and  _268
REMARK  109  A    between atoms: _272  and  _274
REMARK  110  A    between atoms: _274  and  _275
REMARK  111  A    between atoms: _274  and  _277
REMARK  112  A    between atoms: _277  and  _278
REMARK  113  A    between atoms: _281  and  _283
REMARK  114  A    between atoms: _283  and  _284
REMARK  115  A    between atoms: _283  and  _286
REMARK  116  A    between atoms: _286  and  _287
REMARK  117  A    between atoms: _287  and  _288
REMARK  118  A    between atoms: _293  and  _295
REMARK  119  A    between atoms: _295  and  _296
REMARK  120  A    between atoms: _295  and  _298
REMARK  121  A    between atoms: _298  and  _299
REMARK  122  A    between atoms: _304  and  _305
REMARK  123  A    between atoms: _307  and  _309
REMARK  124  A    between atoms: _309  and  _310
REMARK  125  A    between atoms: _309  and  _312
REMARK  126  A    between atoms: _312  and  _313
REMARK  127  A    between atoms: _316  and  _318
REMARK  128  A    between atoms: _318  and  _319
REMARK  129  A    between atoms: _318  and  _321
REMARK  130  A    between atoms: _323  and  _325
REMARK  131  A    between atoms: _325  and  _326
REMARK  132  A    between atoms: _329  and  _331
REMARK  133  A    between atoms: _331  and  _332
REMARK  134  A    between atoms: _331  and  _334
REMARK  135  A    between atoms: _334  and  _335
REMARK  136  A    between atoms: _335  and  _336
REMARK  137  A    between atoms: _336  and  _337
REMARK  138  A    between atoms: _337  and  _338
REMARK  139  A    between atoms: _342  and  _344
REMARK  140  A    between atoms: _344  and  _345
REMARK  141  A    between atoms: _344  and  _347
REMARK  142  A    between atoms: _347  and  _348
REMARK  143  A    between atoms: _351  and  _353
REMARK  144  A    between atoms: _353  and  _354
REMARK  145  A    between atoms: _357  and  _359
REMARK  146  A    between atoms: _359  and  _360
REMARK  147  A    between atoms: _359  and  _362
REMARK  148  A    between atoms: _362  and  _363
REMARK  149  A    between atoms: _363  and  _486
REMARK  150  A    between atoms: _364  and  _366
REMARK  151  A    between atoms: _366  and  _367
REMARK  152  A    between atoms: _366  and  _369
REMARK  153  A    between atoms: _369  and  _370
REMARK  154  A    between atoms: _370  and  _371
REMARK  155  A    between atoms: _371  and  _372
REMARK  156  A    between atoms: _372  and  _373
REMARK  157  A    between atoms: _377  and  _379
REMARK  158  A    between atoms: _379  and  _380
REMARK  159  A    between atoms: _382  and  _384
REMARK  160  A    between atoms: _384  and  _385
REMARK  161  A    between atoms: _384  and  _387
REMARK  162  A    between atoms: _387  and  _388
REMARK  163  A    between atoms: _391  and  _393
REMARK  164  A    between atoms: _393  and  _394
REMARK  165  A    between atoms: _393  and  _396
REMARK  166  A    between atoms: _396  and  _397
REMARK  167  A    between atoms: _399  and  _401
REMARK  168  A    between atoms: _401  and  _402
REMARK  169  A    between atoms: _404  and  _406
REMARK  170  A    between atoms: _406  and  _407
REMARK  171  A    between atoms: _409  and  _411
REMARK  172  A    between atoms: _411  and  _412
REMARK  173  A    between atoms: _411  and  _414
REMARK  174  A    between atoms: _414  and  _415
REMARK  175  A    between atoms: _418  and  _420
REMARK  176  A    between atoms: _420  and  _421
REMARK  177  A    between atoms: _420  and  _423
REMARK  178  A    between atoms: _423  and  _424
REMARK  179  A    between atoms: _427  and  _429
REMARK  180  A    between atoms: _429  and  _430
REMARK  181  A    between atoms: _429  and  _432
REMARK  182  A    between atoms: _432  and  _433
REMARK  183  A    between atoms: _436  and  _438
REMARK  184  A    between atoms: _438  and  _439
REMARK  185  A    between atoms: _438  and  _441
REMARK  186  A    between atoms: _441  and  _442
REMARK  187  A    between atoms: _444  and  _446
REMARK  188  A    between atoms: _446  and  _447
REMARK  189  A    between atoms: _446  and  _449
REMARK  190  A    between atoms: _449  and  _450
REMARK  191  A    between atoms: _460  and  _462
REMARK  192  A    between atoms: _462  and  _463
REMARK  193  A    between atoms: _465  and  _467
REMARK  194  A    between atoms: _467  and  _468
REMARK  195  A    between atoms: _467  and  _470
REMARK  196  A    between atoms: _470  and  _471
REMARK  197  A    between atoms: _471  and  _472
REMARK  198  A    between atoms: _475  and  _477
REMARK  199  A    between atoms: _477  and  _478
REMARK  200  A    between atoms: _480  and  _482
REMARK  201  A    between atoms: _482  and  _483
REMARK  202  A    between atoms: _482  and  _485
REMARK  203  A    between atoms: _485  and  _486
REMARK  204  A    between atoms: _487  and  _489
REMARK  205  A    between atoms: _489  and  _490
REMARK  206  A    between atoms: _493  and  _495
REMARK  207  A    between atoms: _495  and  _496
REMARK  208  A    between atoms: _495  and  _498
REMARK  209  A    between atoms: _498  and  _499
REMARK  210  A    between atoms: _499  and  _500
REMARK  211  A    between atoms: _505  and  _507
REMARK  212  A    between atoms: _507  and  _508
REMARK  213  A    between atoms: _507  and  _510
REMARK  214  A    between atoms: _510  and  _511
REMARK  215  A    between atoms: _511  and  _512
REMARK  216  A    between atoms: _512  and  _513
REMARK  217  A    between atoms: _523  and  _524
REMARK  218  A    between atoms: _529  and  _531
REMARK  219  A    between atoms: _531  and  _532
REMARK  220  A    between atoms: _534  and  _536
REMARK  221  A    between atoms: _536  and  _537
REMARK  222  A    between atoms: _536  and  _539
REMARK  223  A    between atoms: _542  and  _544
REMARK  224  A    between atoms: _544  and  _545
REMARK  225  A    between atoms: _544  and  _547
REMARK  226  A    between atoms: _547  and  _548
REMARK  227  A    between atoms: _553  and  _554
REMARK  228  A    between atoms: _556  and  _558
REMARK  229  A    between atoms: _558  and  _559
REMARK  230  A    between atoms: _558  and  _561
REMARK  231  A    between atoms: _561  and  _562
REMARK                            x       y       z     vdW  Elec       q    Type
REMARK                         _______ _______ _______ _____ _____    ______ ____
ROOT
ATOM      1  C   TRP A   1      44.560 -15.538  36.622  0.00  0.00    +0.239 C 
ATOM      2  O   TRP A   1      45.712 -15.743  36.283  0.00  0.00    -0.274 OA
ATOM      3  N   GLY A   2      43.605 -15.289  35.734  0.00  0.00    -0.296 N 
ATOM      4  H   GLY A   2      42.643 -15.094  36.078  0.00  0.00    +0.150 HD
ENDROOT
BRANCH   1   5
ATOM      5  CA  TRP A   1      44.153 -15.558  38.141  0.00  0.00    +0.149 C 
BRANCH   5   6
ATOM      6  N   TRP A   1      42.696 -15.552  38.284  0.00  0.00    -0.238 NA
ATOM      7  H   TRP A   1      42.205 -16.461  38.164  0.00  0.00    +0.142 HD
ENDBRANCH   5   6
BRANCH   5   8
ATOM      8  CB  TRP A   1      44.723 -16.796  38.865  0.00  0.00    +0.054 C 
BRANCH   8   9
ATOM      9  CG  TRP A   1      44.623 -16.739  40.368  0.00  0.00    -0.002 A 
ATOM     10  CD1 TRP A   1      45.520 -16.166  41.229  0.00  0.00    +0.068 A 
ATOM     11  NE1 TRP A   1      45.123 -16.365  42.532  0.00  0.00    -0.352 N 
ATOM     12  HE1 TRP A   1      45.644 -16.053  43.376  0.00  0.00    +0.166 HD
ATOM     13  CE2 TRP A   1      43.927 -17.042  42.538  0.00  0.00    +0.056 A 
ATOM     14  CZ2 TRP A   1      43.130 -17.475  43.617  0.00  0.00    +0.017 A 
ATOM     15  CH2 TRP A   1      41.977 -18.168  43.315  0.00  0.00    +0.001 A 
ATOM     16  CZ3 TRP A   1      41.609 -18.442  41.986  0.00  0.00    +0.000 A 
ATOM     17  CE3 TRP A   1      42.399 -18.020  40.918  0.00  0.00    +0.001 A 
ATOM     18  CD2 TRP A   1      43.578 -17.293  41.188  0.00  0.00    +0.013 A 
ENDBRANCH   8   9
ENDBRANCH   5   8
ENDBRANCH   1   5
BRANCH   3  19
ATOM     19  CA  GLY A   2      43.849 -15.278  34.296  0.00  0.00    +0.176 C 
BRANCH  19  20
ATOM     20  C   GLY A   2      44.672 -14.109  33.809  0.00  0.00    +0.243 C 
ATOM     21  O   GLY A   2      44.952 -13.185  34.564  0.00  0.00    -0.273 OA
ATOM     22  N   TYR A   3      45.047 -14.140  32.528  0.00  0.00    -0.298 N 
ATOM     23  H   TYR A   3      44.719 -14.953  31.969  0.00  0.00    +0.150 HD
BRANCH  22  24
ATOM     24  CA  TYR A   3      45.876 -13.147  31.819  0.00  0.00    +0.141 C 
BRANCH  24  25
ATOM     25  C   TYR A   3      45.348 -11.738  31.951  0.00  0.00    +0.227 C 
ATOM     26  O   TYR A   3      44.141 -11.549  32.086  0.00  0.00    -0.286 OA
ENDBRANCH  24  25
BRANCH  24  27
ATOM     27  CB  TYR A   3      45.931 -13.489  30.323  0.00  0.00    +0.054 C 
BRANCH  27  28
ATOM     28  CG  TYR A   3      46.652 -14.755  29.918  0.00  0.00    -0.020 A 
ATOM     29  CD2 TYR A   3      46.940 -15.750  30.849  0.00  0.00    -0.001 A 
ATOM     30  CE2 TYR A   3      47.561 -16.938  30.470  0.00  0.00    +0.036 A 
ATOM     31  CZ  TYR A   3      47.869 -17.159  29.136  0.00  0.00    +0.134 A 
ATOM     32  CE1 TYR A   3      47.611 -16.176  28.194  0.00  0.00    +0.036 A 
ATOM     33  CD1 TYR A   3      47.010 -14.980  28.590  0.00  0.00    -0.001 A 
BRANCH  31  34
ATOM     34  OH  TYR A   3      48.461 -18.336  28.753  0.00  0.00    -0.506 OA
ATOM     35  HH  TYR A   3      49.348 -18.144  28.356  0.00  0.00    +0.292 HD
ENDBRANCH  31  34
ENDBRANCH  27  28
ENDBRANCH  24  27
ENDBRANCH  22  24
ENDBRANCH  19  20
ENDBRANCH   3  19
TORSDOF 11
REMARK  Name = ../refined-set-2016/4x6m/4x6m_pocket.pdb
REMARK  231 active torsions:
REMARK  status: ('A' for Active; 'I' for Inactive)
REMARK    1  A    between atoms: _1  and  _5
REMARK    2  A    between atoms: _5  and  _6
REMARK    3  A    between atoms: _5  and  _8
REMARK    4  A    between atoms: _8  and  _9
REMARK    5  A    between atoms: _12  and  _14
REMARK    6  A    between atoms: _14  and  _15
REMARK    7  A    between atoms: _14  and  _17
REMARK    8  A    between atoms: _20  and  _22
REMARK    9  A    between atoms: _22  and  _23
REMARK   10  A    between atoms: _22  and  _25
REMARK   11  A    between atoms: _25  and  _26
REMARK   12  A    between atoms: _29  and  _31
REMARK   13  A    between atoms: _31  and  _32
REMARK   14  A    between atoms: _31  and  _34
REMARK   15  A    between atoms: _34  and  _35
REMARK   16  A    between atoms: _40  and  _42
REMARK   17  A    between atoms: _42  and  _43
REMARK   18  A    between atoms: _42  and  _45
REMARK   19  A    between atoms: _45  and  _46
REMARK   20  A    between atoms: _49  and  _51
REMARK   21  A    between atoms: _51  and  _52
REMARK   22  A    between atoms: _51  and  _54
REMARK   23  A    between atoms: _54  and  _55
REMARK   24  A    between atoms: _58  and  _60
REMARK   25  A    between atoms: _60  and  _61
REMARK   26  A    between atoms: _60  and  _63
REMARK   27  A    between atoms: _63  and  _64
REMARK   28  A    between atoms: _64  and  _65
REMARK   29  A    between atoms: _70  and  _72
REMARK   30  A    between atoms: _72  and  _73
REMARK   31  A    between atoms: _72  and  _75
REMARK   32  A    between atoms: _75  and  _76
REMARK   33  A    between atoms: _76  and  _77
REMARK   34  A    between atoms: _77  and  _78
REMARK   35  A    between atoms: _87  and  _89
REMARK   36  A    between atoms: _89  and  _90
REMARK   37  A    between atoms: _89  and  _92
REMARK   38  A    between atoms: _92  and  _93
REMARK   39  A    between atoms: _98  and  _100
REMARK   40  A    between atoms: _100  and  _101
REMARK   41  A    between atoms: _100  and  _103
REMARK   42  A    between atoms: _103  and  _104
REMARK   43  A    between atoms: _107  and  _109
REMARK   44  A    between atoms: _109  and  _110
REMARK   45  A    between atoms: _109  and  _112
REMARK   46  A    between atoms: _112  and  _113
REMARK   47  A    between atoms: _113  and  _148
REMARK   48  A    between atoms: _114  and  _116
REMARK   49  A    between atoms: _116  and  _117
REMARK   50  A    between atoms: _119  and  _121
REMARK   51  A    between atoms: _121  and  _122
REMARK   52  A    between atoms: _125  and  _127
REMARK   53  A    between atoms: _127  and  _128
REMARK   54  A    between atoms: _131  and  _133
REMARK   55  A    between atoms: _133  and  _134
REMARK   56  A    between atoms: _133  and  _136
REMARK   57  A    between atoms: _136  and  _137
REMARK   58  A    between atoms: _142  and  _144
REMARK   59  A    between atoms: _144  and  _145
REMARK   60  A    between atoms: _144  and  _147
REMARK   61  A    between atoms: _147  and  _148
REMARK   62  A    between atoms: _149  and  _151
REMARK   63  A    between atoms: _151  and  _152
REMARK   64  A    between atoms: _151  and  _154
REMARK   65  A    between atoms: _154  and  _155
REMARK   66  A    between atoms: _161  and  _163
REMARK   67  A    between atoms: _163  and  _164
REMARK   68  A    between atoms: _163  and  _166
REMARK   69  A    between atoms: _166  and  _167
REMARK   70  A    between atoms: _172  and  _173
REMARK   71  A    between atoms: _175  and  _177
REMARK   72  A    between atoms: _177  and  _178
REMARK   73  A    between atoms: _177  and  _180
REMARK   74  A    between atoms: _183  and  _185
REMARK   75  A    between atoms: _185  and  _186
REMARK   76  A    between atoms: _189  and  _191
REMARK   77  A    between atoms: _191  and  _192
REMARK   78  A    between atoms: _191  and  _194
REMARK   79  A    between atoms: _194  and  _195
REMARK   80  A    between atoms: _198  and  _200
REMARK   81  A    between atoms: _200  and  _201
REMARK   82  A    between atoms: _200  and  _203
REMARK   83  A    between atoms: _206  and  _208
REMARK   84  A    between atoms: _208  and  _209
REMARK   85  A    between atoms: _208  and  _211
REMARK   86  A    between atoms: _211  and  _212
REMARK   87  A    between atoms: _222  and  _224
REMARK   88  A    between atoms: _224  and  _225
REMARK   89  A    between atoms: _227  and  _229
REMARK   90  A    between atoms: _229  and  _230
REMARK   91  A    between atoms: _229  and  _232
REMARK   92  A    between atoms: _232  and  _233
REMARK   93  A    between atoms: _238  and  _239
REMARK   94  A    between atoms: _241  and  _243
REMARK   95  A    between atoms: _243  and  _244
REMARK   96  A    between atoms: _243  and  _246
REMARK   97  A    between atoms: _246  and  _247
REMARK   98  A    between atoms: _250  and  _252
REMARK   99  A    between atoms: _252  and  _253
REMARK  100  A    between atoms: _252  and  _255
REMARK  101  A    between atoms: _255  and  _256
REMARK  102  A    between atoms: _259  and  _261
REMARK  103  A    between atoms: _261  and  _262
REMARK  104  A    between atoms: _261  and  _264
REMARK  105  A    between atoms: _264  and  _265
REMARK  106  A    between atoms: _265  and  _266
REMARK  107  A    between atoms: _266  and  _267
REMARK  108  A    between atoms: _267  and  _268
REMARK  109  A    between atoms: _272  and  _274
REMARK  110  A    between atoms: _274  and  _275
REMARK  111  A    between atoms: _274  and  _277
REMARK  112  A    between atoms: _277  and  _278
REMARK  113  A    between atoms: _281  and  _283
REMARK  114  A    between atoms: _283  and  _284
REMARK  115  A    between atoms: _283  and  _286
REMARK  116  A    between atoms: _286  and  _287
REMARK  117  A    between atoms: _287  and  _288
REMARK  118  A    between atoms: _293  and  _295
REMARK  119  A    between atoms: _295  and  _296
REMARK  120  A    between atoms: _295  and  _298
REMARK  121  A    between atoms: _298  and  _299
REMARK  122  A    between atoms: _304  and  _305
REMARK  123  A    between atoms: _307  and  _309
REMARK  124  A    between atoms: _309  and  _310
REMARK  125  A    between atoms: _309  and  _312
REMARK  126  A    between atoms: _312  and  _313
REMARK  127  A    between atoms: _316  and  _318
REMARK  128  A    between atoms: _318  and  _319
REMARK  129  A    between atoms: _318  and  _321
REMARK  130  A    between atoms: _323  and  _325
REMARK  131  A    between atoms: _325  and  _326
REMARK  132  A    between atoms: _329  and  _331
REMARK  133  A    between atoms: _331  and  _332
REMARK  134  A    between atoms: _331  and  _334
REMARK  135  A    between atoms: _334  and  _335
REMARK  136  A    between atoms: _335  and  _336
REMARK  137  A    between atoms: _336  and  _337
REMARK  138  A    between atoms: _337  and  _338
REMARK  139  A    between atoms: _342  and  _344
REMARK  140  A    between atoms: _344  and  _345
REMARK  141  A    between atoms: _344  and  _347
REMARK  142  A    between atoms: _347  and  _348
REMARK  143  A    between atoms: _351  and  _353
REMARK  144  A    between atoms: _353  and  _354
REMARK  145  A    between atoms: _357  and  _359
REMARK  146  A    between atoms: _359  and  _360
REMARK  147  A    between atoms: _359  and  _362
REMARK  148  A    between atoms: _362  and  _363
REMARK  149  A    between atoms: _363  and  _486
REMARK  150  A    between atoms: _364  and  _366
REMARK  151  A    between atoms: _366  and  _367
REMARK  152  A    between atoms: _366  and  _369
REMARK  153  A    between atoms: _369  and  _370
REMARK  154  A    between atoms: _370  and  _371
REMARK  155  A    between atoms: _371  and  _372
REMARK  156  A    between atoms: _372  and  _373
REMARK  157  A    between atoms: _377  and  _379
REMARK  158  A    between atoms: _379  and  _380
REMARK  159  A    between atoms: _382  and  _384
REMARK  160  A    between atoms: _384  and  _385
REMARK  161  A    between atoms: _384  and  _387
REMARK  162  A    between atoms: _387  and  _388
REMARK  163  A    between atoms: _391  and  _393
REMARK  164  A    between atoms: _393  and  _394
REMARK  165  A    between atoms: _393  and  _396
REMARK  166  A    between atoms: _396  and  _397
REMARK  167  A    between atoms: _399  and  _401
REMARK  168  A    between atoms: _401  and  _402
REMARK  169  A    between atoms: _404  and  _406
REMARK  170  A    between atoms: _406  and  _407
REMARK  171  A    between atoms: _409  and  _411
REMARK  172  A    between atoms: _411  and  _412
REMARK  173  A    between atoms: _411  and  _414
REMARK  174  A    between atoms: _414  and  _415
REMARK  175  A    between atoms: _418  and  _420
REMARK  176  A    between atoms: _420  and  _421
REMARK  177  A    between atoms: _420  and  _423
REMARK  178  A    between atoms: _423  and  _424
REMARK  179  A    between atoms: _427  and  _429
REMARK  180  A    between atoms: _429  and  _430
REMARK  181  A    between atoms: _429  and  _432
REMARK  182  A    between atoms: _432  and  _433
REMARK  183  A    between atoms: _436  and  _438
REMARK  184  A    between atoms: _438  and  _439
REMARK  185  A    between atoms: _438  and  _441
REMARK  186  A    between atoms: _441  and  _442
REMARK  187  A    between atoms: _444  and  _446
REMARK  188  A    between atoms: _446  and  _447
REMARK  189  A    between atoms: _446  and  _449
REMARK  190  A    between atoms: _449  and  _450
REMARK  191  A    between atoms: _460  and  _462
REMARK  192  A    between atoms: _462  and  _463
REMARK  193  A    between atoms: _465  and  _467
REMARK  194  A    between atoms: _467  and  _468
REMARK  195  A    between atoms: _467  and  _470
REMARK  196  A    between atoms: _470  and  _471
REMARK  197  A    between atoms: _471  and  _472
REMARK  198  A    between atoms: _475  and  _477
REMARK  199  A    between atoms: _477  and  _478
REMARK  200  A    between atoms: _480  and  _482
REMARK  201  A    between atoms: _482  and  _483
REMARK  202  A    between atoms: _482  and  _485
REMARK  203  A    between atoms: _485  and  _486
REMARK  204  A    between atoms: _487  and  _489
REMARK  205  A    between atoms: _489  and  _490
REMARK  206  A    between atoms: _493  and  _495
REMARK  207  A    between atoms: _495  and  _496
REMARK  208  A    between atoms: _495  and  _498
REMARK  209  A    between atoms: _498  and  _499
REMARK  210  A    between atoms: _499  and  _500
REMARK  211  A    between atoms: _505  and  _507
REMARK  212  A    between atoms: _507  and  _508
REMARK  213  A    between atoms: _507  and  _510
REMARK  214  A    between atoms: _510  and  _511
REMARK  215  A    between atoms: _511  and  _512
REMARK  216  A    between atoms: _512  and  _513
REMARK  217  A    between atoms: _523  and  _524
REMARK  218  A    between atoms: _529  and  _531
REMARK  219  A    between atoms: _531  and  _532
REMARK  220  A    between atoms: _534  and  _536
REMARK  221  A    between atoms: _536  and  _537
REMARK  222  A    between atoms: _536  and  _539
REMARK  223  A    between atoms: _542  and  _544
REMARK  224  A    between atoms: _544  and  _545
REMARK  225  A    between atoms: _544  and  _547
REMARK  226  A    between atoms: _547  and  _548
REMARK  227  A    between atoms: _553  and  _554
REMARK  228  A    between atoms: _556  and  _558
REMARK  229  A    between atoms: _558  and  _559
REMARK  230  A    between atoms: _558  and  _561
REMARK  231  A    between atoms: _561  and  _562
REMARK                            x       y       z     vdW  Elec       q    Type
REMARK                         _______ _______ _______ _____ _____    ______ ____
ROOT
ATOM      1  CA  LEU A   1      46.052 -11.653  25.279  0.00  0.00    +0.133 C 
ENDROOT
BRANCH   1   2
ATOM      2  N   LEU A   1      46.155 -10.498  26.159  0.00  0.00    -0.239 NA
ATOM      3  H   LEU A   1      45.991  -9.564  25.733  0.00  0.00    +0.142 HD
ENDBRANCH   1   2
BRANCH   1   4
ATOM      4  C   LEU A   1      47.235 -12.632  25.337  0.00  0.00    +0.224 C 
ATOM      5  O   LEU A   1      47.027 -13.841  25.316  0.00  0.00    -0.287 OA
ENDBRANCH   1   4
BRANCH   1   6
ATOM      6  CB  LEU A   1      45.826 -11.158  23.848  0.00  0.00    +0.025 C 
BRANCH   6   7
ATOM      7  CG  LEU A   1      45.122 -12.112  22.891  0.00  0.00    +0.002 C 
ATOM      8  CD2 LEU A   1      43.723 -12.541  23.410  0.00  0.00    +0.000 C 
ATOM      9  CD1 LEU A   1      45.046 -11.489  21.513  0.00  0.00    +0.000 C 
ENDBRANCH   6   7
ENDBRANCH   1   6
TORSDOF 4
REMARK  Name = ../refined-set-2016/4x6m/4x6m_pocket.pdb
REMARK  231 active torsions:
REMARK  status: ('A' for Active; 'I' for Inactive)
REMARK    1  A    between atoms: _1  and  _5
REMARK    2  A    between atoms: _5  and  _6
REMARK    3  A    between atoms: _5  and  _8
REMARK    4  A    between atoms: _8  and  _9
REMARK    5  A    between atoms: _12  and  _14
REMARK    6  A    between atoms: _14  and  _15
REMARK    7  A    between atoms: _14  and  _17
REMARK    8  A    between atoms: _20  and  _22
REMARK    9  A    between atoms: _22  and  _23
REMARK   10  A    between atoms: _22  and  _25
REMARK   11  A    between atoms: _25  and  _26
REMARK   12  A    between atoms: _29  and  _31
REMARK   13  A    between atoms: _31  and  _32
REMARK   14  A    between atoms: _31  and  _34
REMARK   15  A    between atoms: _34  and  _35
REMARK   16  A    between atoms: _40  and  _42
REMARK   17  A    between atoms: _42  and  _43
REMARK   18  A    between atoms: _42  and  _45
REMARK   19  A    between atoms: _45  and  _46
REMARK   20  A    between atoms: _49  and  _51
REMARK   21  A    between atoms: _51  and  _52
REMARK   22  A    between atoms: _51  and  _54
REMARK   23  A    between atoms: _54  and  _55
REMARK   24  A    between atoms: _58  and  _60
REMARK   25  A    between atoms: _60  and  _61
REMARK   26  A    between atoms: _60  and  _63
REMARK   27  A    between atoms: _63  and  _64
REMARK   28  A    between atoms: _64  and  _65
REMARK   29  A    between atoms: _70  and  _72
REMARK   30  A    between atoms: _72  and  _73
REMARK   31  A    between atoms: _72  and  _75
REMARK   32  A    between atoms: _75  and  _76
REMARK   33  A    between atoms: _76  and  _77
REMARK   34  A    between atoms: _77  and  _78
REMARK   35  A    between atoms: _87  and  _89
REMARK   36  A    between atoms: _89  and  _90
REMARK   37  A    between atoms: _89  and  _92
REMARK   38  A    between atoms: _92  and  _93
REMARK   39  A    between atoms: _98  and  _100
REMARK   40  A    between atoms: _100  and  _101
REMARK   41  A    between atoms: _100  and  _103
REMARK   42  A    between atoms: _103  and  _104
REMARK   43  A    between atoms: _107  and  _109
REMARK   44  A    between atoms: _109  and  _110
REMARK   45  A    between atoms: _109  and  _112
REMARK   46  A    between atoms: _112  and  _113
REMARK   47  A    between atoms: _113  and  _148
REMARK   48  A    between atoms: _114  and  _116
REMARK   49  A    between atoms: _116  and  _117
REMARK   50  A    between atoms: _119  and  _121
REMARK   51  A    between atoms: _121  and  _122
REMARK   52  A    between atoms: _125  and  _127
REMARK   53  A    between atoms: _127  and  _128
REMARK   54  A    between atoms: _131  and  _133
REMARK   55  A    between atoms: _133  and  _134
REMARK   56  A    between atoms: _133  and  _136
REMARK   57  A    between atoms: _136  and  _137
REMARK   58  A    between atoms: _142  and  _144
REMARK   59  A    between atoms: _144  and  _145
REMARK   60  A    between atoms: _144  and  _147
REMARK   61  A    between atoms: _147  and  _148
REMARK   62  A    between atoms: _149  and  _151
REMARK   63  A    between atoms: _151  and  _152
REMARK   64  A    between atoms: _151  and  _154
REMARK   65  A    between atoms: _154  and  _155
REMARK   66  A    between atoms: _161  and  _163
REMARK   67  A    between atoms: _163  and  _164
REMARK   68  A    between atoms: _163  and  _166
REMARK   69  A    between atoms: _166  and  _167
REMARK   70  A    between atoms: _172  and  _173
REMARK   71  A    between atoms: _175  and  _177
REMARK   72  A    between atoms: _177  and  _178
REMARK   73  A    between atoms: _177  and  _180
REMARK   74  A    between atoms: _183  and  _185
REMARK   75  A    between atoms: _185  and  _186
REMARK   76  A    between atoms: _189  and  _191
REMARK   77  A    between atoms: _191  and  _192
REMARK   78  A    between atoms: _191  and  _194
REMARK   79  A    between atoms: _194  and  _195
REMARK   80  A    between atoms: _198  and  _200
REMARK   81  A    between atoms: _200  and  _201
REMARK   82  A    between atoms: _200  and  _203
REMARK   83  A    between atoms: _206  and  _208
REMARK   84  A    between atoms: _208  and  _209
REMARK   85  A    between atoms: _208  and  _211
REMARK   86  A    between atoms: _211  and  _212
REMARK   87  A    between atoms: _222  and  _224
REMARK   88  A    between atoms: _224  and  _225
REMARK   89  A    between atoms: _227  and  _229
REMARK   90  A    between atoms: _229  and  _230
REMARK   91  A    between atoms: _229  and  _232
REMARK   92  A    between atoms: _232  and  _233
REMARK   93  A    between atoms: _238  and  _239
REMARK   94  A    between atoms: _241  and  _243
REMARK   95  A    between atoms: _243  and  _244
REMARK   96  A    between atoms: _243  and  _246
REMARK   97  A    between atoms: _246  and  _247
REMARK   98  A    between atoms: _250  and  _252
REMARK   99  A    between atoms: _252  and  _253
REMARK  100  A    between atoms: _252  and  _255
REMARK  101  A    between atoms: _255  and  _256
REMARK  102  A    between atoms: _259  and  _261
REMARK  103  A    between atoms: _261  and  _262
REMARK  104  A    between atoms: _261  and  _264
REMARK  105  A    between atoms: _264  and  _265
REMARK  106  A    between atoms: _265  and  _266
REMARK  107  A    between atoms: _266  and  _267
REMARK  108  A    between atoms: _267  and  _268
REMARK  109  A    between atoms: _272  and  _274
REMARK  110  A    between atoms: _274  and  _275
REMARK  111  A    between atoms: _274  and  _277
REMARK  112  A    between atoms: _277  and  _278
REMARK  113  A    between atoms: _281  and  _283
REMARK  114  A    between atoms: _283  and  _284
REMARK  115  A    between atoms: _283  and  _286
REMARK  116  A    between atoms: _286  and  _287
REMARK  117  A    between atoms: _287  and  _288
REMARK  118  A    between atoms: _293  and  _295
REMARK  119  A    between atoms: _295  and  _296
REMARK  120  A    between atoms: _295  and  _298
REMARK  121  A    between atoms: _298  and  _299
REMARK  122  A    between atoms: _304  and  _305
REMARK  123  A    between atoms: _307  and  _309
REMARK  124  A    between atoms: _309  and  _310
REMARK  125  A    between atoms: _309  and  _312
REMARK  126  A    between atoms: _312  and  _313
REMARK  127  A    between atoms: _316  and  _318
REMARK  128  A    between atoms: _318  and  _319
REMARK  129  A    between atoms: _318  and  _321
REMARK  130  A    between atoms: _323  and  _325
REMARK  131  A    between atoms: _325  and  _326
REMARK  132  A    between atoms: _329  and  _331
REMARK  133  A    between atoms: _331  and  _332
REMARK  134  A    between atoms: _331  and  _334
REMARK  135  A    between atoms: _334  and  _335
REMARK  136  A    between atoms: _335  and  _336
REMARK  137  A    between atoms: _336  and  _337
REMARK  138  A    between atoms: _337  and  _338
REMARK  139  A    between atoms: _342  and  _344
REMARK  140  A    between atoms: _344  and  _345
REMARK  141  A    between atoms: _344  and  _347
REMARK  142  A    between atoms: _347  and  _348
REMARK  143  A    between atoms: _351  and  _353
REMARK  144  A    between atoms: _353  and  _354
REMARK  145  A    between atoms: _357  and  _359
REMARK  146  A    between atoms: _359  and  _360
REMARK  147  A    between atoms: _359  and  _362
REMARK  148  A    between atoms: _362  and  _363
REMARK  149  A    between atoms: _363  and  _486
REMARK  150  A    between atoms: _364  and  _366
REMARK  151  A    between atoms: _366  and  _367
REMARK  152  A    between atoms: _366  and  _369
REMARK  153  A    between atoms: _369  and  _370
REMARK  154  A    between atoms: _370  and  _371
REMARK  155  A    between atoms: _371  and  _372
REMARK  156  A    between atoms: _372  and  _373
REMARK  157  A    between atoms: _377  and  _379
REMARK  158  A    between atoms: _379  and  _380
REMARK  159  A    between atoms: _382  and  _384
REMARK  160  A    between atoms: _384  and  _385
REMARK  161  A    between atoms: _384  and  _387
REMARK  162  A    between atoms: _387  and  _388
REMARK  163  A    between atoms: _391  and  _393
REMARK  164  A    between atoms: _393  and  _394
REMARK  165  A    between atoms: _393  and  _396
REMARK  166  A    between atoms: _396  and  _397
REMARK  167  A    between atoms: _399  and  _401
REMARK  168  A    between atoms: _401  and  _402
REMARK  169  A    between atoms: _404  and  _406
REMARK  170  A    between atoms: _406  and  _407
REMARK  171  A    between atoms: _409  and  _411
REMARK  172  A    between atoms: _411  and  _412
REMARK  173  A    between atoms: _411  and  _414
REMARK  174  A    between atoms: _414  and  _415
REMARK  175  A    between atoms: _418  and  _420
REMARK  176  A    between atoms: _420  and  _421
REMARK  177  A    between atoms: _420  and  _423
REMARK  178  A    between atoms: _423  and  _424
REMARK  179  A    between atoms: _427  and  _429
REMARK  180  A    between atoms: _429  and  _430
REMARK  181  A    between atoms: _429  and  _432
REMARK  182  A    between atoms: _432  and  _433
REMARK  183  A    between atoms: _436  and  _438
REMARK  184  A    between atoms: _438  and  _439
REMARK  185  A    between atoms: _438  and  _441
REMARK  186  A    between atoms: _441  and  _442
REMARK  187  A    between atoms: _444  and  _446
REMARK  188  A    between atoms: _446  and  _447
REMARK  189  A    between atoms: _446  and  _449
REMARK  190  A    between atoms: _449  and  _450
REMARK  191  A    between atoms: _460  and  _462
REMARK  192  A    between atoms: _462  and  _463
REMARK  193  A    between atoms: _465  and  _467
REMARK  194  A    between atoms: _467  and  _468
REMARK  195  A    between atoms: _467  and  _470
REMARK  196  A    between atoms: _470  and  _471
REMARK  197  A    between atoms: _471  and  _472
REMARK  198  A    between atoms: _475  and  _477
REMARK  199  A    between atoms: _477  and  _478
REMARK  200  A    between atoms: _480  and  _482
REMARK  201  A    between atoms: _482  and  _483
REMARK  202  A    between atoms: _482  and  _485
REMARK  203  A    between atoms: _485  and  _486
REMARK  204  A    between atoms: _487  and  _489
REMARK  205  A    between atoms: _489  and  _490
REMARK  206  A    between atoms: _493  and  _495
REMARK  207  A    between atoms: _495  and  _496
REMARK  208  A    between atoms: _495  and  _498
REMARK  209  A    between atoms: _498  and  _499
REMARK  210  A    between atoms: _499  and  _500
REMARK  211  A    between atoms: _505  and  _507
REMARK  212  A    between atoms: _507  and  _508
REMARK  213  A    between atoms: _507  and  _510
REMARK  214  A    between atoms: _510  and  _511
REMARK  215  A    between atoms: _511  and  _512
REMARK  216  A    between atoms: _512  and  _513
REMARK  217  A    between atoms: _523  and  _524
REMARK  218  A    between atoms: _529  and  _531
REMARK  219  A    between atoms: _531  and  _532
REMARK  220  A    between atoms: _534  and  _536
REMARK  221  A    between atoms: _536  and  _537
REMARK  222  A    between atoms: _536  and  _539
REMARK  223  A    between atoms: _542  and  _544
REMARK  224  A    between atoms: _544  and  _545
REMARK  225  A    between atoms: _544  and  _547
REMARK  226  A    between atoms: _547  and  _548
REMARK  227  A    between atoms: _553  and  _554
REMARK  228  A    between atoms: _556  and  _558
REMARK  229  A    between atoms: _558  and  _559
REMARK  230  A    between atoms: _558  and  _561
REMARK  231  A    between atoms: _561  and  _562
REMARK                            x       y       z     vdW  Elec       q    Type
REMARK                         _______ _______ _______ _____ _____    ______ ____
ROOT
ATOM      1  C   LYS A   2      49.825 -15.677  33.097  0.00  0.00    +0.241 C 
ATOM      2  N   ILE A   3      49.542 -16.794  33.777  0.00  0.00    -0.297 N 
ATOM      3  H   ILE A   3      50.008 -17.673  33.474  0.00  0.00    +0.150 HD
ATOM      4  O   LYS A   2      49.288 -14.586  33.330  0.00  0.00    -0.273 OA
ENDROOT
BRANCH   2   5
ATOM      5  CA  ILE A   3      48.626 -16.871  34.914  0.00  0.00    +0.149 C 
BRANCH   5   6
ATOM      6  C   ILE A   3      49.171 -15.933  35.999  0.00  0.00    +0.241 C 
ATOM      7  N   GLN A   4      48.314 -15.102  36.550  0.00  0.00    -0.298 N 
ATOM      8  H   GLN A   4      47.325 -15.120  36.229  0.00  0.00    +0.150 HD
ATOM      9  O   ILE A   3      50.377 -15.943  36.278  0.00  0.00    -0.273 OA
BRANCH   7  10
ATOM     10  CA  GLN A   4      48.692 -14.157  37.591  0.00  0.00    +0.137 C 
BRANCH  10  11
ATOM     11  C   GLN A   4      48.849 -14.800  38.974  0.00  0.00    +0.227 C 
ATOM     12  O   GLN A   4      48.149 -15.759  39.319  0.00  0.00    -0.286 OA
ENDBRANCH  10  11
BRANCH  10  13
ATOM     13  CB  GLN A   4      47.718 -12.970  37.627  0.00  0.00    +0.037 C 
BRANCH  13  14
ATOM     14  CG  GLN A   4      47.707 -12.163  36.320  0.00  0.00    +0.087 C 
BRANCH  14  15
ATOM     15  CD  GLN A   4      49.066 -11.598  35.999  0.00  0.00    +0.219 C 
ATOM     16  OE1 GLN A   4      49.570 -10.725  36.701  0.00  0.00    -0.275 OA
ATOM     17  NE2 GLN A   4      49.702 -12.110  34.956  0.00  0.00    -0.329 N 
ATOM     18 HE21 GLN A   4      50.655 -11.774  34.712  0.00  0.00    +0.145 HD
ATOM     19 HE22 GLN A   4      49.248 -12.848  34.381  0.00  0.00    +0.145 HD
ENDBRANCH  14  15
ENDBRANCH  13  14
ENDBRANCH  10  13
ENDBRANCH   7  10
ENDBRANCH   5   6
BRANCH   5  20
ATOM     20  CB  ILE A   3      48.494 -18.375  35.378  0.00  0.00    +0.027 C 
ATOM     21  CG2 ILE A   3      47.962 -18.550  36.827  0.00  0.00    +0.002 C 
BRANCH  20  22
ATOM     22  CG1 ILE A   3      47.669 -19.206  34.354  0.00  0.00    +0.002 C 
ATOM     23  CD1 ILE A   3      46.286 -18.676  34.004  0.00  0.00    +0.000 C 
ENDBRANCH  20  22
ENDBRANCH   5  20
ENDBRANCH   2   5
BRANCH   1  24
ATOM     24  CA  LYS A   2      50.851 -15.811  31.969  0.00  0.00    +0.149 C 
BRANCH  24  26
ATOM     25  C   ASP A   1      50.699 -14.641  29.824  0.00  0.00    +0.239 C 
ATOM     26  N   LYS A   2      50.746 -14.624  31.148  0.00  0.00    -0.297 N 
ATOM     27  H   LYS A   2      50.705 -13.701  31.626  0.00  0.00    +0.150 HD
ATOM     28  O   ASP A   1      50.824 -15.672  29.158  0.00  0.00    -0.274 OA
BRANCH  25  29
ATOM     29  CA  ASP A   1      50.499 -13.288  29.155  0.00  0.00    +0.156 C 
BRANCH  29  30
ATOM     30  N   ASP A   1      50.061 -13.498  27.787  0.00  0.00    -0.238 NA
ATOM     31  H   ASP A   1      49.563 -14.381  27.554  0.00  0.00    +0.142 HD
ENDBRANCH  29  30
BRANCH  29  32
ATOM     32  CB  ASP A   1      49.424 -12.456  29.897  0.00  0.00    +0.140 C 
BRANCH  32  33
ATOM     33  CG  ASP A   1      49.892 -11.640  31.090  0.00  0.00    +0.367 C 
ATOM     34  OD2 ASP A   1      49.033 -11.035  31.770  0.00  0.00    -0.246 OA
ATOM     35  OD1 ASP A   1      51.110 -11.628  31.362  0.00  0.00    -0.246 OA
ENDBRANCH  32  33
ENDBRANCH  29  32
ENDBRANCH  25  29
ENDBRANCH  24  26
BRANCH  24  36
ATOM     36  CB  LYS A   2      52.304 -16.017  32.480  0.00  0.00    +0.029 C 
BRANCH  36  37
ATOM     37  CG  LYS A   2      52.862 -14.896  33.356  0.00  0.00    +0.000 C 
BRANCH  37  38
ATOM     38  CD  LYS A   2      54.188 -15.285  34.023  0.00  0.00    -0.024 C 
BRANCH  38  39
ATOM     39  CE  LYS A   2      55.427 -14.994  33.184  0.00  0.00    -0.086 C 
BRANCH  39  40
ATOM     40  NZ  LYS A   2      55.988 -13.629  33.418  0.00  0.00    +0.380 N 
ATOM     41  HZ1 LYS A   2      56.255 -13.532  34.418  0.00  0.00    -0.089 HD
ATOM     42  HZ2 LYS A   2      55.271 -12.915  33.179  0.00  0.00    -0.089 HD
ATOM     43  HZ3 LYS A   2      56.827 -13.493  32.819  0.00  0.00    -0.089 HD
ENDBRANCH  39  40
ENDBRANCH  38  39
ENDBRANCH  37  38
ENDBRANCH  36  37
ENDBRANCH  24  36
ENDBRANCH   1  24
TORSDOF 20
REMARK  Name = ../refined-set-2016/4x6m/4x6m_pocket.pdb
REMARK  231 active torsions:
REMARK  status: ('A' for Active; 'I' for Inactive)
REMARK    1  A    between atoms: _1  and  _5
REMARK    2  A    between atoms: _5  and  _6
REMARK    3  A    between atoms: _5  and  _8
REMARK    4  A    between atoms: _8  and  _9
REMARK    5  A    between atoms: _12  and  _14
REMARK    6  A    between atoms: _14  and  _15
REMARK    7  A    between atoms: _14  and  _17
REMARK    8  A    between atoms: _20  and  _22
REMARK    9  A    between atoms: _22  and  _23
REMARK   10  A    between atoms: _22  and  _25
REMARK   11  A    between atoms: _25  and  _26
REMARK   12  A    between atoms: _29  and  _31
REMARK   13  A    between atoms: _31  and  _32
REMARK   14  A    between atoms: _31  and  _34
REMARK   15  A    between atoms: _34  and  _35
REMARK   16  A    between atoms: _40  and  _42
REMARK   17  A    between atoms: _42  and  _43
REMARK   18  A    between atoms: _42  and  _45
REMARK   19  A    between atoms: _45  and  _46
REMARK   20  A    between atoms: _49  and  _51
REMARK   21  A    between atoms: _51  and  _52
REMARK   22  A    between atoms: _51  and  _54
REMARK   23  A    between atoms: _54  and  _55
REMARK   24  A    between atoms: _58  and  _60
REMARK   25  A    between atoms: _60  and  _61
REMARK   26  A    between atoms: _60  and  _63
REMARK   27  A    between atoms: _63  and  _64
REMARK   28  A    between atoms: _64  and  _65
REMARK   29  A    between atoms: _70  and  _72
REMARK   30  A    between atoms: _72  and  _73
REMARK   31  A    between atoms: _72  and  _75
REMARK   32  A    between atoms: _75  and  _76
REMARK   33  A    between atoms: _76  and  _77
REMARK   34  A    between atoms: _77  and  _78
REMARK   35  A    between atoms: _87  and  _89
REMARK   36  A    between atoms: _89  and  _90
REMARK   37  A    between atoms: _89  and  _92
REMARK   38  A    between atoms: _92  and  _93
REMARK   39  A    between atoms: _98  and  _100
REMARK   40  A    between atoms: _100  and  _101
REMARK   41  A    between atoms: _100  and  _103
REMARK   42  A    between atoms: _103  and  _104
REMARK   43  A    between atoms: _107  and  _109
REMARK   44  A    between atoms: _109  and  _110
REMARK   45  A    between atoms: _109  and  _112
REMARK   46  A    between atoms: _112  and  _113
REMARK   47  A    between atoms: _113  and  _148
REMARK   48  A    between atoms: _114  and  _116
REMARK   49  A    between atoms: _116  and  _117
REMARK   50  A    between atoms: _119  and  _121
REMARK   51  A    between atoms: _121  and  _122
REMARK   52  A    between atoms: _125  and  _127
REMARK   53  A    between atoms: _127  and  _128
REMARK   54  A    between atoms: _131  and  _133
REMARK   55  A    between atoms: _133  and  _134
REMARK   56  A    between atoms: _133  and  _136
REMARK   57  A    between atoms: _136  and  _137
REMARK   58  A    between atoms: _142  and  _144
REMARK   59  A    between atoms: _144  and  _145
REMARK   60  A    between atoms: _144  and  _147
REMARK   61  A    between atoms: _147  and  _148
REMARK   62  A    between atoms: _149  and  _151
REMARK   63  A    between atoms: _151  and  _152
REMARK   64  A    between atoms: _151  and  _154
REMARK   65  A    between atoms: _154  and  _155
REMARK   66  A    between atoms: _161  and  _163
REMARK   67  A    between atoms: _163  and  _164
REMARK   68  A    between atoms: _163  and  _166
REMARK   69  A    between atoms: _166  and  _167
REMARK   70  A    between atoms: _172  and  _173
REMARK   71  A    between atoms: _175  and  _177
REMARK   72  A    between atoms: _177  and  _178
REMARK   73  A    between atoms: _177  and  _180
REMARK   74  A    between atoms: _183  and  _185
REMARK   75  A    between atoms: _185  and  _186
REMARK   76  A    between atoms: _189  and  _191
REMARK   77  A    between atoms: _191  and  _192
REMARK   78  A    between atoms: _191  and  _194
REMARK   79  A    between atoms: _194  and  _195
REMARK   80  A    between atoms: _198  and  _200
REMARK   81  A    between atoms: _200  and  _201
REMARK   82  A    between atoms: _200  and  _203
REMARK   83  A    between atoms: _206  and  _208
REMARK   84  A    between atoms: _208  and  _209
REMARK   85  A    between atoms: _208  and  _211
REMARK   86  A    between atoms: _211  and  _212
REMARK   87  A    between atoms: _222  and  _224
REMARK   88  A    between atoms: _224  and  _225
REMARK   89  A    between atoms: _227  and  _229
REMARK   90  A    between atoms: _229  and  _230
REMARK   91  A    between atoms: _229  and  _232
REMARK   92  A    between atoms: _232  and  _233
REMARK   93  A    between atoms: _238  and  _239
REMARK   94  A    between atoms: _241  and  _243
REMARK   95  A    between atoms: _243  and  _244
REMARK   96  A    between atoms: _243  and  _246
REMARK   97  A    between atoms: _246  and  _247
REMARK   98  A    between atoms: _250  and  _252
REMARK   99  A    between atoms: _252  and  _253
REMARK  100  A    between atoms: _252  and  _255
REMARK  101  A    between atoms: _255  and  _256
REMARK  102  A    between atoms: _259  and  _261
REMARK  103  A    between atoms: _261  and  _262
REMARK  104  A    between atoms: _261  and  _264
REMARK  105  A    between atoms: _264  and  _265
REMARK  106  A    between atoms: _265  and  _266
REMARK  107  A    between atoms: _266  and  _267
REMARK  108  A    between atoms: _267  and  _268
REMARK  109  A    between atoms: _272  and  _274
REMARK  110  A    between atoms: _274  and  _275
REMARK  111  A    between atoms: _274  and  _277
REMARK  112  A    between atoms: _277  and  _278
REMARK  113  A    between atoms: _281  and  _283
REMARK  114  A    between atoms: _283  and  _284
REMARK  115  A    between atoms: _283  and  _286
REMARK  116  A    between atoms: _286  and  _287
REMARK  117  A    between atoms: _287  and  _288
REMARK  118  A    between atoms: _293  and  _295
REMARK  119  A    between atoms: _295  and  _296
REMARK  120  A    between atoms: _295  and  _298
REMARK  121  A    between atoms: _298  and  _299
REMARK  122  A    between atoms: _304  and  _305
REMARK  123  A    between atoms: _307  and  _309
REMARK  124  A    between atoms: _309  and  _310
REMARK  125  A    between atoms: _309  and  _312
REMARK  126  A    between atoms: _312  and  _313
REMARK  127  A    between atoms: _316  and  _318
REMARK  128  A    between atoms: _318  and  _319
REMARK  129  A    between atoms: _318  and  _321
REMARK  130  A    between atoms: _323  and  _325
REMARK  131  A    between atoms: _325  and  _326
REMARK  132  A    between atoms: _329  and  _331
REMARK  133  A    between atoms: _331  and  _332
REMARK  134  A    between atoms: _331  and  _334
REMARK  135  A    between atoms: _334  and  _335
REMARK  136  A    between atoms: _335  and  _336
REMARK  137  A    between atoms: _336  and  _337
REMARK  138  A    between atoms: _337  and  _338
REMARK  139  A    between atoms: _342  and  _344
REMARK  140  A    between atoms: _344  and  _345
REMARK  141  A    between atoms: _344  and  _347
REMARK  142  A    between atoms: _347  and  _348
REMARK  143  A    between atoms: _351  and  _353
REMARK  144  A    between atoms: _353  and  _354
REMARK  145  A    between atoms: _357  and  _359
REMARK  146  A    between atoms: _359  and  _360
REMARK  147  A    between atoms: _359  and  _362
REMARK  148  A    between atoms: _362  and  _363
REMARK  149  A    between atoms: _363  and  _486
REMARK  150  A    between atoms: _364  and  _366
REMARK  151  A    between atoms: _366  and  _367
REMARK  152  A    between atoms: _366  and  _369
REMARK  153  A    between atoms: _369  and  _370
REMARK  154  A    between atoms: _370  and  _371
REMARK  155  A    between atoms: _371  and  _372
REMARK  156  A    between atoms: _372  and  _373
REMARK  157  A    between atoms: _377  and  _379
REMARK  158  A    between atoms: _379  and  _380
REMARK  159  A    between atoms: _382  and  _384
REMARK  160  A    between atoms: _384  and  _385
REMARK  161  A    between atoms: _384  and  _387
REMARK  162  A    between atoms: _387  and  _388
REMARK  163  A    between atoms: _391  and  _393
REMARK  164  A    between atoms: _393  and  _394
REMARK  165  A    between atoms: _393  and  _396
REMARK  166  A    between atoms: _396  and  _397
REMARK  167  A    between atoms: _399  and  _401
REMARK  168  A    between atoms: _401  and  _402
REMARK  169  A    between atoms: _404  and  _406
REMARK  170  A    between atoms: _406  and  _407
REMARK  171  A    between atoms: _409  and  _411
REMARK  172  A    between atoms: _411  and  _412
REMARK  173  A    between atoms: _411  and  _414
REMARK  174  A    between atoms: _414  and  _415
REMARK  175  A    between atoms: _418  and  _420
REMARK  176  A    between atoms: _420  and  _421
REMARK  177  A    between atoms: _420  and  _423
REMARK  178  A    between atoms: _423  and  _424
REMARK  179  A    between atoms: _427  and  _429
REMARK  180  A    between atoms: _429  and  _430
REMARK  181  A    between atoms: _429  and  _432
REMARK  182  A    between atoms: _432  and  _433
REMARK  183  A    between atoms: _436  and  _438
REMARK  184  A    between atoms: _438  and  _439
REMARK  185  A    between atoms: _438  and  _441
REMARK  186  A    between atoms: _441  and  _442
REMARK  187  A    between atoms: _444  and  _446
REMARK  188  A    between atoms: _446  and  _447
REMARK  189  A    between atoms: _446  and  _449
REMARK  190  A    between atoms: _449  and  _450
REMARK  191  A    between atoms: _460  and  _462
REMARK  192  A    between atoms: _462  and  _463
REMARK  193  A    between atoms: _465  and  _467
REMARK  194  A    between atoms: _467  and  _468
REMARK  195  A    between atoms: _467  and  _470
REMARK  196  A    between atoms: _470  and  _471
REMARK  197  A    between atoms: _471  and  _472
REMARK  198  A    between atoms: _475  and  _477
REMARK  199  A    between atoms: _477  and  _478
REMARK  200  A    between atoms: _480  and  _482
REMARK  201  A    between atoms: _482  and  _483
REMARK  202  A    between atoms: _482  and  _485
REMARK  203  A    between atoms: _485  and  _486
REMARK  204  A    between atoms: _487  and  _489
REMARK  205  A    between atoms: _489  and  _490
REMARK  206  A    between atoms: _493  and  _495
REMARK  207  A    between atoms: _495  and  _496
REMARK  208  A    between atoms: _495  and  _498
REMARK  209  A    between atoms: _498  and  _499
REMARK  210  A    between atoms: _499  and  _500
REMARK  211  A    between atoms: _505  and  _507
REMARK  212  A    between atoms: _507  and  _508
REMARK  213  A    between atoms: _507  and  _510
REMARK  214  A    between atoms: _510  and  _511
REMARK  215  A    between atoms: _511  and  _512
REMARK  216  A    between atoms: _512  and  _513
REMARK  217  A    between atoms: _523  and  _524
REMARK  218  A    between atoms: _529  and  _531
REMARK  219  A    between atoms: _531  and  _532
REMARK  220  A    between atoms: _534  and  _536
REMARK  221  A    between atoms: _536  and  _537
REMARK  222  A    between atoms: _536  and  _539
REMARK  223  A    between atoms: _542  and  _544
REMARK  224  A    between atoms: _544  and  _545
REMARK  225  A    between atoms: _544  and  _547
REMARK  226  A    between atoms: _547  and  _548
REMARK  227  A    between atoms: _553  and  _554
REMARK  228  A    between atoms: _556  and  _558
REMARK  229  A    between atoms: _558  and  _559
REMARK  230  A    between atoms: _558  and  _561
REMARK  231  A    between atoms: _561  and  _562
REMARK                            x       y       z     vdW  Elec       q    Type
REMARK                         _______ _______ _______ _____ _____    ______ ____
ROOT
ATOM      1  CG  TYR A   1      29.211 -12.244  20.572  0.00  0.00    -0.020 A 
ATOM      2  CD2 TYR A   1      29.019 -11.634  21.813  0.00  0.00    -0.001 A 
ATOM      3  CE2 TYR A   1      30.091 -11.403  22.682  0.00  0.00    +0.036 A 
ATOM      4  CZ  TYR A   1      31.370 -11.788  22.311  0.00  0.00    +0.134 A 
ATOM      5  CE1 TYR A   1      31.582 -12.398  21.083  0.00  0.00    +0.036 A 
ATOM      6  CD1 TYR A   1      30.506 -12.614  20.220  0.00  0.00    -0.001 A 
ENDROOT
BRANCH   4   7
ATOM      7  OH  TYR A   1      32.446 -11.599  23.147  0.00  0.00    -0.506 OA
ATOM      8  HH  TYR A   1      32.296 -12.092  23.992  0.00  0.00    +0.292 HD
ENDBRANCH   4   7
BRANCH   1   9
ATOM      9  CB  TYR A   1      28.047 -12.496  19.635  0.00  0.00    +0.051 C 
BRANCH   9  10
ATOM     10  CA  TYR A   1      28.027 -11.501  18.452  0.00  0.00    +0.137 C 
BRANCH  10  11
ATOM     11  N   TYR A   1      27.594 -10.179  18.894  0.00  0.00    -0.239 NA
ATOM     12  H   TYR A   1      26.597 -10.055  19.161  0.00  0.00    +0.142 HD
ENDBRANCH  10  11
BRANCH  10  13
ATOM     13  C   TYR A   1      27.216 -11.991  17.254  0.00  0.00    +0.224 C 
ATOM     14  O   TYR A   1      26.497 -12.984  17.329  0.00  0.00    -0.287 OA
ENDBRANCH  10  13
ENDBRANCH   9  10
ENDBRANCH   1   9
TORSDOF 5
REMARK  Name = ../refined-set-2016/4x6m/4x6m_pocket.pdb
REMARK  231 active torsions:
REMARK  status: ('A' for Active; 'I' for Inactive)
REMARK    1  A    between atoms: _1  and  _5
REMARK    2  A    between atoms: _5  and  _6
REMARK    3  A    between atoms: _5  and  _8
REMARK    4  A    between atoms: _8  and  _9
REMARK    5  A    between atoms: _12  and  _14
REMARK    6  A    between atoms: _14  and  _15
REMARK    7  A    between atoms: _14  and  _17
REMARK    8  A    between atoms: _20  and  _22
REMARK    9  A    between atoms: _22  and  _23
REMARK   10  A    between atoms: _22  and  _25
REMARK   11  A    between atoms: _25  and  _26
REMARK   12  A    between atoms: _29  and  _31
REMARK   13  A    between atoms: _31  and  _32
REMARK   14  A    between atoms: _31  and  _34
REMARK   15  A    between atoms: _34  and  _35
REMARK   16  A    between atoms: _40  and  _42
REMARK   17  A    between atoms: _42  and  _43
REMARK   18  A    between atoms: _42  and  _45
REMARK   19  A    between atoms: _45  and  _46
REMARK   20  A    between atoms: _49  and  _51
REMARK   21  A    between atoms: _51  and  _52
REMARK   22  A    between atoms: _51  and  _54
REMARK   23  A    between atoms: _54  and  _55
REMARK   24  A    between atoms: _58  and  _60
REMARK   25  A    between atoms: _60  and  _61
REMARK   26  A    between atoms: _60  and  _63
REMARK   27  A    between atoms: _63  and  _64
REMARK   28  A    between atoms: _64  and  _65
REMARK   29  A    between atoms: _70  and  _72
REMARK   30  A    between atoms: _72  and  _73
REMARK   31  A    between atoms: _72  and  _75
REMARK   32  A    between atoms: _75  and  _76
REMARK   33  A    between atoms: _76  and  _77
REMARK   34  A    between atoms: _77  and  _78
REMARK   35  A    between atoms: _87  and  _89
REMARK   36  A    between atoms: _89  and  _90
REMARK   37  A    between atoms: _89  and  _92
REMARK   38  A    between atoms: _92  and  _93
REMARK   39  A    between atoms: _98  and  _100
REMARK   40  A    between atoms: _100  and  _101
REMARK   41  A    between atoms: _100  and  _103
REMARK   42  A    between atoms: _103  and  _104
REMARK   43  A    between atoms: _107  and  _109
REMARK   44  A    between atoms: _109  and  _110
REMARK   45  A    between atoms: _109  and  _112
REMARK   46  A    between atoms: _112  and  _113
REMARK   47  A    between atoms: _113  and  _148
REMARK   48  A    between atoms: _114  and  _116
REMARK   49  A    between atoms: _116  and  _117
REMARK   50  A    between atoms: _119  and  _121
REMARK   51  A    between atoms: _121  and  _122
REMARK   52  A    between atoms: _125  and  _127
REMARK   53  A    between atoms: _127  and  _128
REMARK   54  A    between atoms: _131  and  _133
REMARK   55  A    between atoms: _133  and  _134
REMARK   56  A    between atoms: _133  and  _136
REMARK   57  A    between atoms: _136  and  _137
REMARK   58  A    between atoms: _142  and  _144
REMARK   59  A    between atoms: _144  and  _145
REMARK   60  A    between atoms: _144  and  _147
REMARK   61  A    between atoms: _147  and  _148
REMARK   62  A    between atoms: _149  and  _151
REMARK   63  A    between atoms: _151  and  _152
REMARK   64  A    between atoms: _151  and  _154
REMARK   65  A    between atoms: _154  and  _155
REMARK   66  A    between atoms: _161  and  _163
REMARK   67  A    between atoms: _163  and  _164
REMARK   68  A    between atoms: _163  and  _166
REMARK   69  A    between atoms: _166  and  _167
REMARK   70  A    between atoms: _172  and  _173
REMARK   71  A    between atoms: _175  and  _177
REMARK   72  A    between atoms: _177  and  _178
REMARK   73  A    between atoms: _177  and  _180
REMARK   74  A    between atoms: _183  and  _185
REMARK   75  A    between atoms: _185  and  _186
REMARK   76  A    between atoms: _189  and  _191
REMARK   77  A    between atoms: _191  and  _192
REMARK   78  A    between atoms: _191  and  _194
REMARK   79  A    between atoms: _194  and  _195
REMARK   80  A    between atoms: _198  and  _200
REMARK   81  A    between atoms: _200  and  _201
REMARK   82  A    between atoms: _200  and  _203
REMARK   83  A    between atoms: _206  and  _208
REMARK   84  A    between atoms: _208  and  _209
REMARK   85  A    between atoms: _208  and  _211
REMARK   86  A    between atoms: _211  and  _212
REMARK   87  A    between atoms: _222  and  _224
REMARK   88  A    between atoms: _224  and  _225
REMARK   89  A    between atoms: _227  and  _229
REMARK   90  A    between atoms: _229  and  _230
REMARK   91  A    between atoms: _229  and  _232
REMARK   92  A    between atoms: _232  and  _233
REMARK   93  A    between atoms: _238  and  _239
REMARK   94  A    between atoms: _241  and  _243
REMARK   95  A    between atoms: _243  and  _244
REMARK   96  A    between atoms: _243  and  _246
REMARK   97  A    between atoms: _246  and  _247
REMARK   98  A    between atoms: _250  and  _252
REMARK   99  A    between atoms: _252  and  _253
REMARK  100  A    between atoms: _252  and  _255
REMARK  101  A    between atoms: _255  and  _256
REMARK  102  A    between atoms: _259  and  _261
REMARK  103  A    between atoms: _261  and  _262
REMARK  104  A    between atoms: _261  and  _264
REMARK  105  A    between atoms: _264  and  _265
REMARK  106  A    between atoms: _265  and  _266
REMARK  107  A    between atoms: _266  and  _267
REMARK  108  A    between atoms: _267  and  _268
REMARK  109  A    between atoms: _272  and  _274
REMARK  110  A    between atoms: _274  and  _275
REMARK  111  A    between atoms: _274  and  _277
REMARK  112  A    between atoms: _277  and  _278
REMARK  113  A    between atoms: _281  and  _283
REMARK  114  A    between atoms: _283  and  _284
REMARK  115  A    between atoms: _283  and  _286
REMARK  116  A    between atoms: _286  and  _287
REMARK  117  A    between atoms: _287  and  _288
REMARK  118  A    between atoms: _293  and  _295
REMARK  119  A    between atoms: _295  and  _296
REMARK  120  A    between atoms: _295  and  _298
REMARK  121  A    between atoms: _298  and  _299
REMARK  122  A    between atoms: _304  and  _305
REMARK  123  A    between atoms: _307  and  _309
REMARK  124  A    between atoms: _309  and  _310
REMARK  125  A    between atoms: _309  and  _312
REMARK  126  A    between atoms: _312  and  _313
REMARK  127  A    between atoms: _316  and  _318
REMARK  128  A    between atoms: _318  and  _319
REMARK  129  A    between atoms: _318  and  _321
REMARK  130  A    between atoms: _323  and  _325
REMARK  131  A    between atoms: _325  and  _326
REMARK  132  A    between atoms: _329  and  _331
REMARK  133  A    between atoms: _331  and  _332
REMARK  134  A    between atoms: _331  and  _334
REMARK  135  A    between atoms: _334  and  _335
REMARK  136  A    between atoms: _335  and  _336
REMARK  137  A    between atoms: _336  and  _337
REMARK  138  A    between atoms: _337  and  _338
REMARK  139  A    between atoms: _342  and  _344
REMARK  140  A    between atoms: _344  and  _345
REMARK  141  A    between atoms: _344  and  _347
REMARK  142  A    between atoms: _347  and  _348
REMARK  143  A    between atoms: _351  and  _353
REMARK  144  A    between atoms: _353  and  _354
REMARK  145  A    between atoms: _357  and  _359
REMARK  146  A    between atoms: _359  and  _360
REMARK  147  A    between atoms: _359  and  _362
REMARK  148  A    between atoms: _362  and  _363
REMARK  149  A    between atoms: _363  and  _486
REMARK  150  A    between atoms: _364  and  _366
REMARK  151  A    between atoms: _366  and  _367
REMARK  152  A    between atoms: _366  and  _369
REMARK  153  A    between atoms: _369  and  _370
REMARK  154  A    between atoms: _370  and  _371
REMARK  155  A    between atoms: _371  and  _372
REMARK  156  A    between atoms: _372  and  _373
REMARK  157  A    between atoms: _377  and  _379
REMARK  158  A    between atoms: _379  and  _380
REMARK  159  A    between atoms: _382  and  _384
REMARK  160  A    between atoms: _384  and  _385
REMARK  161  A    between atoms: _384  and  _387
REMARK  162  A    between atoms: _387  and  _388
REMARK  163  A    between atoms: _391  and  _393
REMARK  164  A    between atoms: _393  and  _394
REMARK  165  A    between atoms: _393  and  _396
REMARK  166  A    between atoms: _396  and  _397
REMARK  167  A    between atoms: _399  and  _401
REMARK  168  A    between atoms: _401  and  _402
REMARK  169  A    between atoms: _404  and  _406
REMARK  170  A    between atoms: _406  and  _407
REMARK  171  A    between atoms: _409  and  _411
REMARK  172  A    between atoms: _411  and  _412
REMARK  173  A    between atoms: _411  and  _414
REMARK  174  A    between atoms: _414  and  _415
REMARK  175  A    between atoms: _418  and  _420
REMARK  176  A    between atoms: _420  and  _421
REMARK  177  A    between atoms: _420  and  _423
REMARK  178  A    between atoms: _423  and  _424
REMARK  179  A    between atoms: _427  and  _429
REMARK  180  A    between atoms: _429  and  _430
REMARK  181  A    between atoms: _429  and  _432
REMARK  182  A    between atoms: _432  and  _433
REMARK  183  A    between atoms: _436  and  _438
REMARK  184  A    between atoms: _438  and  _439
REMARK  185  A    between atoms: _438  and  _441
REMARK  186  A    between atoms: _441  and  _442
REMARK  187  A    between atoms: _444  and  _446
REMARK  188  A    between atoms: _446  and  _447
REMARK  189  A    between atoms: _446  and  _449
REMARK  190  A    between atoms: _449  and  _450
REMARK  191  A    between atoms: _460  and  _462
REMARK  192  A    between atoms: _462  and  _463
REMARK  193  A    between atoms: _465  and  _467
REMARK  194  A    between atoms: _467  and  _468
REMARK  195  A    between atoms: _467  and  _470
REMARK  196  A    between atoms: _470  and  _471
REMARK  197  A    between atoms: _471  and  _472
REMARK  198  A    between atoms: _475  and  _477
REMARK  199  A    between atoms: _477  and  _478
REMARK  200  A    between atoms: _480  and  _482
REMARK  201  A    between atoms: _482  and  _483
REMARK  202  A    between atoms: _482  and  _485
REMARK  203  A    between atoms: _485  and  _486
REMARK  204  A    between atoms: _487  and  _489
REMARK  205  A    between atoms: _489  and  _490
REMARK  206  A    between atoms: _493  and  _495
REMARK  207  A    between atoms: _495  and  _496
REMARK  208  A    between atoms: _495  and  _498
REMARK  209  A    between atoms: _498  and  _499
REMARK  210  A    between atoms: _499  and  _500
REMARK  211  A    between atoms: _505  and  _507
REMARK  212  A    between atoms: _507  and  _508
REMARK  213  A    between atoms: _507  and  _510
REMARK  214  A    between atoms: _510  and  _511
REMARK  215  A    between atoms: _511  and  _512
REMARK  216  A    between atoms: _512  and  _513
REMARK  217  A    between atoms: _523  and  _524
REMARK  218  A    between atoms: _529  and  _531
REMARK  219  A    between atoms: _531  and  _532
REMARK  220  A    between atoms: _534  and  _536
REMARK  221  A    between atoms: _536  and  _537
REMARK  222  A    between atoms: _536  and  _539
REMARK  223  A    between atoms: _542  and  _544
REMARK  224  A    between atoms: _544  and  _545
REMARK  225  A    between atoms: _544  and  _547
REMARK  226  A    between atoms: _547  and  _548
REMARK  227  A    between atoms: _553  and  _554
REMARK  228  A    between atoms: _556  and  _558
REMARK  229  A    between atoms: _558  and  _559
REMARK  230  A    between atoms: _558  and  _561
REMARK  231  A    between atoms: _561  and  _562
REMARK                            x       y       z     vdW  Elec       q    Type
REMARK                         _______ _______ _______ _____ _____    ______ ____
ROOT
ATOM      1  C   ILE A   1      25.714 -12.937  30.048  0.00  0.00    +0.238 C 
ATOM      2  O   ILE A   1      26.783 -13.520  30.226  0.00  0.00    -0.274 OA
ATOM      3  N   CYS A   2      25.629 -11.715  29.506  0.00  0.00    -0.297 N 
ATOM      4  H   CYS A   2      24.693 -11.278  29.388  0.00  0.00    +0.150 HD
ENDROOT
BRANCH   1   5
ATOM      5  CA  ILE A   1      24.397 -13.639  30.406  0.00  0.00    +0.145 C 
BRANCH   5   6
ATOM      6  N   ILE A   1      24.479 -15.008  29.925  0.00  0.00    -0.238 NA
ATOM      7  H   ILE A   1      25.328 -15.572  30.135  0.00  0.00    +0.142 HD
ENDBRANCH   5   6
BRANCH   5   8
ATOM      8  CB  ILE A   1      23.974 -13.529  31.885  0.00  0.00    +0.025 C 
ATOM      9  CG2 ILE A   1      25.055 -14.103  32.863  0.00  0.00    +0.002 C 
BRANCH   8  10
ATOM     10  CG1 ILE A   1      23.527 -12.066  32.223  0.00  0.00    +0.002 C 
ATOM     11  CD1 ILE A   1      22.974 -11.892  33.687  0.00  0.00    +0.000 C 
ENDBRANCH   8  10
ENDBRANCH   5   8
ENDBRANCH   1   5
BRANCH   3  12
ATOM     12  CA  CYS A   2      26.813 -10.982  29.077  0.00  0.00    +0.160 C 
BRANCH  12  13
ATOM     13  C   CYS A   2      27.136  -9.804  29.936  0.00  0.00    +0.242 C 
ATOM     14  O   CYS A   2      26.242  -9.193  30.545  0.00  0.00    -0.273 OA
ATOM     15  N   ALA A   3      28.434  -9.459  29.957  0.00  0.00    -0.298 N 
ATOM     16  H   ALA A   3      29.113 -10.024  29.408  0.00  0.00    +0.150 HD
BRANCH  15  17
ATOM     17  CA  ALA A   3      28.923  -8.321  30.723  0.00  0.00    +0.137 C 
ATOM     18  CB  ALA A   3      29.210  -8.724  32.176  0.00  0.00    +0.030 C 
BRANCH  17  19
ATOM     19  C   ALA A   3      30.154  -7.734  30.068  0.00  0.00    +0.227 C 
ATOM     20  O   ALA A   3      31.078  -8.454  29.667  0.00  0.00    -0.286 OA
ENDBRANCH  17  19
ENDBRANCH  15  17
ENDBRANCH  12  13
BRANCH  12  21
ATOM     21  CB  CYS A   2      26.700 -10.583  27.610  0.00  0.00    +0.098 C 
ATOM     22  SG  CYS A   2      26.107 -11.918  26.539  0.00  0.00    -0.080 S 
ENDBRANCH  12  21
ENDBRANCH   3  12
TORSDOF 9
REMARK  Name = ../refined-set-2016/4x6m/4x6m_pocket.pdb
REMARK  231 active torsions:
REMARK  status: ('A' for Active; 'I' for Inactive)
REMARK    1  A    between atoms: _1  and  _5
REMARK    2  A    between atoms: _5  and  _6
REMARK    3  A    between atoms: _5  and  _8
REMARK    4  A    between atoms: _8  and  _9
REMARK    5  A    between atoms: _12  and  _14
REMARK    6  A    between atoms: _14  and  _15
REMARK    7  A    between atoms: _14  and  _17
REMARK    8  A    between atoms: _20  and  _22
REMARK    9  A    between atoms: _22  and  _23
REMARK   10  A    between atoms: _22  and  _25
REMARK   11  A    between atoms: _25  and  _26
REMARK   12  A    between atoms: _29  and  _31
REMARK   13  A    between atoms: _31  and  _32
REMARK   14  A    between atoms: _31  and  _34
REMARK   15  A    between atoms: _34  and  _35
REMARK   16  A    between atoms: _40  and  _42
REMARK   17  A    between atoms: _42  and  _43
REMARK   18  A    between atoms: _42  and  _45
REMARK   19  A    between atoms: _45  and  _46
REMARK   20  A    between atoms: _49  and  _51
REMARK   21  A    between atoms: _51  and  _52
REMARK   22  A    between atoms: _51  and  _54
REMARK   23  A    between atoms: _54  and  _55
REMARK   24  A    between atoms: _58  and  _60
REMARK   25  A    between atoms: _60  and  _61
REMARK   26  A    between atoms: _60  and  _63
REMARK   27  A    between atoms: _63  and  _64
REMARK   28  A    between atoms: _64  and  _65
REMARK   29  A    between atoms: _70  and  _72
REMARK   30  A    between atoms: _72  and  _73
REMARK   31  A    between atoms: _72  and  _75
REMARK   32  A    between atoms: _75  and  _76
REMARK   33  A    between atoms: _76  and  _77
REMARK   34  A    between atoms: _77  and  _78
REMARK   35  A    between atoms: _87  and  _89
REMARK   36  A    between atoms: _89  and  _90
REMARK   37  A    between atoms: _89  and  _92
REMARK   38  A    between atoms: _92  and  _93
REMARK   39  A    between atoms: _98  and  _100
REMARK   40  A    between atoms: _100  and  _101
REMARK   41  A    between atoms: _100  and  _103
REMARK   42  A    between atoms: _103  and  _104
REMARK   43  A    between atoms: _107  and  _109
REMARK   44  A    between atoms: _109  and  _110
REMARK   45  A    between atoms: _109  and  _112
REMARK   46  A    between atoms: _112  and  _113
REMARK   47  A    between atoms: _113  and  _148
REMARK   48  A    between atoms: _114  and  _116
REMARK   49  A    between atoms: _116  and  _117
REMARK   50  A    between atoms: _119  and  _121
REMARK   51  A    between atoms: _121  and  _122
REMARK   52  A    between atoms: _125  and  _127
REMARK   53  A    between atoms: _127  and  _128
REMARK   54  A    between atoms: _131  and  _133
REMARK   55  A    between atoms: _133  and  _134
REMARK   56  A    between atoms: _133  and  _136
REMARK   57  A    between atoms: _136  and  _137
REMARK   58  A    between atoms: _142  and  _144
REMARK   59  A    between atoms: _144  and  _145
REMARK   60  A    between atoms: _144  and  _147
REMARK   61  A    between atoms: _147  and  _148
REMARK   62  A    between atoms: _149  and  _151
REMARK   63  A    between atoms: _151  and  _152
REMARK   64  A    between atoms: _151  and  _154
REMARK   65  A    between atoms: _154  and  _155
REMARK   66  A    between atoms: _161  and  _163
REMARK   67  A    between atoms: _163  and  _164
REMARK   68  A    between atoms: _163  and  _166
REMARK   69  A    between atoms: _166  and  _167
REMARK   70  A    between atoms: _172  and  _173
REMARK   71  A    between atoms: _175  and  _177
REMARK   72  A    between atoms: _177  and  _178
REMARK   73  A    between atoms: _177  and  _180
REMARK   74  A    between atoms: _183  and  _185
REMARK   75  A    between atoms: _185  and  _186
REMARK   76  A    between atoms: _189  and  _191
REMARK   77  A    between atoms: _191  and  _192
REMARK   78  A    between atoms: _191  and  _194
REMARK   79  A    between atoms: _194  and  _195
REMARK   80  A    between atoms: _198  and  _200
REMARK   81  A    between atoms: _200  and  _201
REMARK   82  A    between atoms: _200  and  _203
REMARK   83  A    between atoms: _206  and  _208
REMARK   84  A    between atoms: _208  and  _209
REMARK   85  A    between atoms: _208  and  _211
REMARK   86  A    between atoms: _211  and  _212
REMARK   87  A    between atoms: _222  and  _224
REMARK   88  A    between atoms: _224  and  _225
REMARK   89  A    between atoms: _227  and  _229
REMARK   90  A    between atoms: _229  and  _230
REMARK   91  A    between atoms: _229  and  _232
REMARK   92  A    between atoms: _232  and  _233
REMARK   93  A    between atoms: _238  and  _239
REMARK   94  A    between atoms: _241  and  _243
REMARK   95  A    between atoms: _243  and  _244
REMARK   96  A    between atoms: _243  and  _246
REMARK   97  A    between atoms: _246  and  _247
REMARK   98  A    between atoms: _250  and  _252
REMARK   99  A    between atoms: _252  and  _253
REMARK  100  A    between atoms: _252  and  _255
REMARK  101  A    between atoms: _255  and  _256
REMARK  102  A    between atoms: _259  and  _261
REMARK  103  A    between atoms: _261  and  _262
REMARK  104  A    between atoms: _261  and  _264
REMARK  105  A    between atoms: _264  and  _265
REMARK  106  A    between atoms: _265  and  _266
REMARK  107  A    between atoms: _266  and  _267
REMARK  108  A    between atoms: _267  and  _268
REMARK  109  A    between atoms: _272  and  _274
REMARK  110  A    between atoms: _274  and  _275
REMARK  111  A    between atoms: _274  and  _277
REMARK  112  A    between atoms: _277  and  _278
REMARK  113  A    between atoms: _281  and  _283
REMARK  114  A    between atoms: _283  and  _284
REMARK  115  A    between atoms: _283  and  _286
REMARK  116  A    between atoms: _286  and  _287
REMARK  117  A    between atoms: _287  and  _288
REMARK  118  A    between atoms: _293  and  _295
REMARK  119  A    between atoms: _295  and  _296
REMARK  120  A    between atoms: _295  and  _298
REMARK  121  A    between atoms: _298  and  _299
REMARK  122  A    between atoms: _304  and  _305
REMARK  123  A    between atoms: _307  and  _309
REMARK  124  A    between atoms: _309  and  _310
REMARK  125  A    between atoms: _309  and  _312
REMARK  126  A    between atoms: _312  and  _313
REMARK  127  A    between atoms: _316  and  _318
REMARK  128  A    between atoms: _318  and  _319
REMARK  129  A    between atoms: _318  and  _321
REMARK  130  A    between atoms: _323  and  _325
REMARK  131  A    between atoms: _325  and  _326
REMARK  132  A    between atoms: _329  and  _331
REMARK  133  A    between atoms: _331  and  _332
REMARK  134  A    between atoms: _331  and  _334
REMARK  135  A    between atoms: _334  and  _335
REMARK  136  A    between atoms: _335  and  _336
REMARK  137  A    between atoms: _336  and  _337
REMARK  138  A    between atoms: _337  and  _338
REMARK  139  A    between atoms: _342  and  _344
REMARK  140  A    between atoms: _344  and  _345
REMARK  141  A    between atoms: _344  and  _347
REMARK  142  A    between atoms: _347  and  _348
REMARK  143  A    between atoms: _351  and  _353
REMARK  144  A    between atoms: _353  and  _354
REMARK  145  A    between atoms: _357  and  _359
REMARK  146  A    between atoms: _359  and  _360
REMARK  147  A    between atoms: _359  and  _362
REMARK  148  A    between atoms: _362  and  _363
REMARK  149  A    between atoms: _363  and  _486
REMARK  150  A    between atoms: _364  and  _366
REMARK  151  A    between atoms: _366  and  _367
REMARK  152  A    between atoms: _366  and  _369
REMARK  153  A    between atoms: _369  and  _370
REMARK  154  A    between atoms: _370  and  _371
REMARK  155  A    between atoms: _371  and  _372
REMARK  156  A    between atoms: _372  and  _373
REMARK  157  A    between atoms: _377  and  _379
REMARK  158  A    between atoms: _379  and  _380
REMARK  159  A    between atoms: _382  and  _384
REMARK  160  A    between atoms: _384  and  _385
REMARK  161  A    between atoms: _384  and  _387
REMARK  162  A    between atoms: _387  and  _388
REMARK  163  A    between atoms: _391  and  _393
REMARK  164  A    between atoms: _393  and  _394
REMARK  165  A    between atoms: _393  and  _396
REMARK  166  A    between atoms: _396  and  _397
REMARK  167  A    between atoms: _399  and  _401
REMARK  168  A    between atoms: _401  and  _402
REMARK  169  A    between atoms: _404  and  _406
REMARK  170  A    between atoms: _406  and  _407
REMARK  171  A    between atoms: _409  and  _411
REMARK  172  A    between atoms: _411  and  _412
REMARK  173  A    between atoms: _411  and  _414
REMARK  174  A    between atoms: _414  and  _415
REMARK  175  A    between atoms: _418  and  _420
REMARK  176  A    between atoms: _420  and  _421
REMARK  177  A    between atoms: _420  and  _423
REMARK  178  A    between atoms: _423  and  _424
REMARK  179  A    between atoms: _427  and  _429
REMARK  180  A    between atoms: _429  and  _430
REMARK  181  A    between atoms: _429  and  _432
REMARK  182  A    between atoms: _432  and  _433
REMARK  183  A    between atoms: _436  and  _438
REMARK  184  A    between atoms: _438  and  _439
REMARK  185  A    between atoms: _438  and  _441
REMARK  186  A    between atoms: _441  and  _442
REMARK  187  A    between atoms: _444  and  _446
REMARK  188  A    between atoms: _446  and  _447
REMARK  189  A    between atoms: _446  and  _449
REMARK  190  A    between atoms: _449  and  _450
REMARK  191  A    between atoms: _460  and  _462
REMARK  192  A    between atoms: _462  and  _463
REMARK  193  A    between atoms: _465  and  _467
REMARK  194  A    between atoms: _467  and  _468
REMARK  195  A    between atoms: _467  and  _470
REMARK  196  A    between atoms: _470  and  _471
REMARK  197  A    between atoms: _471  and  _472
REMARK  198  A    between atoms: _475  and  _477
REMARK  199  A    between atoms: _477  and  _478
REMARK  200  A    between atoms: _480  and  _482
REMARK  201  A    between atoms: _482  and  _483
REMARK  202  A    between atoms: _482  and  _485
REMARK  203  A    between atoms: _485  and  _486
REMARK  204  A    between atoms: _487  and  _489
REMARK  205  A    between atoms: _489  and  _490
REMARK  206  A    between atoms: _493  and  _495
REMARK  207  A    between atoms: _495  and  _496
REMARK  208  A    between atoms: _495  and  _498
REMARK  209  A    between atoms: _498  and  _499
REMARK  210  A    between atoms: _499  and  _500
REMARK  211  A    between atoms: _505  and  _507
REMARK  212  A    between atoms: _507  and  _508
REMARK  213  A    between atoms: _507  and  _510
REMARK  214  A    between atoms: _510  and  _511
REMARK  215  A    between atoms: _511  and  _512
REMARK  216  A    between atoms: _512  and  _513
REMARK  217  A    between atoms: _523  and  _524
REMARK  218  A    between atoms: _529  and  _531
REMARK  219  A    between atoms: _531  and  _532
REMARK  220  A    between atoms: _534  and  _536
REMARK  221  A    between atoms: _536  and  _537
REMARK  222  A    between atoms: _536  and  _539
REMARK  223  A    between atoms: _542  and  _544
REMARK  224  A    between atoms: _544  and  _545
REMARK  225  A    between atoms: _544  and  _547
REMARK  226  A    between atoms: _547  and  _548
REMARK  227  A    between atoms: _553  and  _554
REMARK  228  A    between atoms: _556  and  _558
REMARK  229  A    between atoms: _558  and  _559
REMARK  230  A    between atoms: _558  and  _561
REMARK  231  A    between atoms: _561  and  _562
REMARK                            x       y       z     vdW  Elec       q    Type
REMARK                         _______ _______ _______ _____ _____    ______ ____
ROOT
ATOM      1  CA  CYS A   8      39.811 -10.219  25.947  0.00  0.00    +0.160 C 
ENDROOT
BRANCH   1   2
ATOM      2  C   CYS A   8      39.592  -8.714  25.972  0.00  0.00    +0.242 C 
ATOM      3  N   ALA A   9      38.545  -8.236  26.663  0.00  0.00    -0.297 N 
ATOM      4  H   ALA A   9      37.901  -8.937  27.082  0.00  0.00    +0.150 HD
ATOM      5  O   CYS A   8      40.405  -7.998  25.399  0.00  0.00    -0.273 OA
BRANCH   3   6
ATOM      6  CA  ALA A   9      38.217  -6.820  26.887  0.00  0.00    +0.149 C 
ATOM      7  CB  ALA A   9      39.176  -6.207  27.918  0.00  0.00    +0.031 C 
BRANCH   6   8
ATOM      8  C   ALA A   9      38.172  -5.962  25.621  0.00  0.00    +0.241 C 
ATOM      9  O   ALA A   9      38.497  -4.774  25.669  0.00  0.00    -0.273 OA
ATOM     10  N   GLN A  10      37.778  -6.553  24.492  0.00  0.00    -0.298 N 
ATOM     11  H   GLN A  10      37.527  -7.562  24.497  0.00  0.00    +0.150 HD
BRANCH  10  12
ATOM     12  CA  GLN A  10      37.696  -5.789  23.244  0.00  0.00    +0.137 C 
BRANCH  12  13
ATOM     13  C   GLN A  10      36.437  -4.952  23.223  0.00  0.00    +0.227 C 
ATOM     14  O   GLN A  10      35.417  -5.320  23.814  0.00  0.00    -0.286 OA
ENDBRANCH  12  13
BRANCH  12  15
ATOM     15  CB  GLN A  10      37.719  -6.706  22.011  0.00  0.00    +0.037 C 
BRANCH  15  16
ATOM     16  CG  GLN A  10      38.997  -7.510  21.875  0.00  0.00    +0.087 C 
BRANCH  16  17
ATOM     17  CD  GLN A  10      39.166  -7.959  20.456  0.00  0.00    +0.219 C 
ATOM     18  NE2 GLN A  10      38.604  -9.112  20.129  0.00  0.00    -0.329 N 
ATOM     19 HE21 GLN A  10      38.119  -9.678  20.854  0.00  0.00    +0.145 HD
ATOM     20 HE22 GLN A  10      38.647  -9.451  19.147  0.00  0.00    +0.145 HD
ATOM     21  OE1 GLN A  10      39.754  -7.249  19.630  0.00  0.00    -0.275 OA
ENDBRANCH  16  17
ENDBRANCH  15  16
ENDBRANCH  12  15
ENDBRANCH  10  12
ENDBRANCH   6   8
ENDBRANCH   3   6
ENDBRANCH   1   2
BRANCH   1  22
ATOM     22  N   CYS A   8      39.958 -10.636  24.544  0.00  0.00    -0.296 N 
ATOM     23  C   GLY A   7      39.254 -11.638  24.010  0.00  0.00    +0.243 C 
ATOM     24  O   GLY A   7      38.438 -12.286  24.670  0.00  0.00    -0.273 OA
ATOM     25  H   CYS A   8      40.639 -10.129  23.942  0.00  0.00    +0.150 HD
BRANCH  23  26
ATOM     26  CA  GLY A   7      39.486 -11.982  22.542  0.00  0.00    +0.176 C 
BRANCH  26  27
ATOM     27  N   GLY A   7      38.321 -12.700  22.017  0.00  0.00    -0.295 N 
ATOM     28  H   GLY A   7      38.397 -13.728  21.877  0.00  0.00    +0.150 HD
ATOM     29  C   GLU A   6      37.168 -12.102  21.710  0.00  0.00    +0.241 C 
ATOM     30  O   GLU A   6      36.989 -10.881  21.808  0.00  0.00    -0.273 OA
BRANCH  29  31
ATOM     31  CA  GLU A   6      36.010 -13.023  21.280  0.00  0.00    +0.149 C 
BRANCH  31  32
ATOM     32  N   GLU A   6      35.129 -13.187  22.437  0.00  0.00    -0.297 N 
ATOM     33  C   GLY A   5      35.290 -14.143  23.382  0.00  0.00    +0.243 C 
ATOM     34  O   GLY A   5      36.156 -15.014  23.308  0.00  0.00    -0.273 OA
ATOM     35  H   GLU A   6      34.330 -12.529  22.540  0.00  0.00    +0.150 HD
BRANCH  33  36
ATOM     36  CA  GLY A   5      34.342 -14.151  24.565  0.00  0.00    +0.176 C 
BRANCH  36  37
ATOM     37  N   GLY A   5      34.376 -15.483  25.166  0.00  0.00    -0.295 N 
ATOM     38  C   TRP A   4      33.549 -15.924  26.093  0.00  0.00    +0.241 C 
ATOM     39  O   TRP A   4      32.705 -15.220  26.610  0.00  0.00    -0.273 OA
ATOM     40  H   GLY A   5      35.114 -16.137  24.835  0.00  0.00    +0.150 HD
BRANCH  38  41
ATOM     41  CA  TRP A   4      33.712 -17.398  26.524  0.00  0.00    +0.153 C 
BRANCH  41  42
ATOM     42  N   TRP A   4      32.971 -17.690  27.754  0.00  0.00    -0.297 N 
ATOM     43  C   SER A   3      33.377 -18.670  28.547  0.00  0.00    +0.243 C 
ATOM     44  O   SER A   3      34.385 -19.347  28.313  0.00  0.00    -0.273 OA
ATOM     45  H   TRP A   4      32.130 -17.130  28.003  0.00  0.00    +0.150 HD
BRANCH  43  46
ATOM     46  CA  SER A   3      32.535 -18.957  29.789  0.00  0.00    +0.178 C 
BRANCH  46  47
ATOM     47  N   SER A   3      32.650 -17.940  30.821  0.00  0.00    -0.295 N 
ATOM     48  C   THR A   2      33.164 -18.214  32.010  0.00  0.00    +0.243 C 
ATOM     49  O   THR A   2      33.627 -19.317  32.310  0.00  0.00    -0.273 OA
ATOM     50  H   SER A   3      32.321 -16.974  30.621  0.00  0.00    +0.150 HD
BRANCH  48  51
ATOM     51  CA  THR A   2      33.056 -17.101  33.042  0.00  0.00    +0.176 C 
BRANCH  51  52
ATOM     52  N   THR A   2      32.179 -17.559  34.134  0.00  0.00    -0.295 N 
ATOM     53  H   THR A   2      32.536 -17.470  35.107  0.00  0.00    +0.150 HD
ATOM     54  C   ILE A   1      30.943 -18.087  33.966  0.00  0.00    +0.238 C 
ATOM     55  O   ILE A   1      30.392 -18.188  32.870  0.00  0.00    -0.274 OA
BRANCH  54  56
ATOM     56  CA  ILE A   1      30.195 -18.554  35.226  0.00  0.00    +0.145 C 
BRANCH  56  57
ATOM     57  CB  ILE A   1      29.921 -20.097  35.170  0.00  0.00    +0.025 C 
ATOM     58  CG2 ILE A   1      31.237 -20.879  35.084  0.00  0.00    +0.002 C 
BRANCH  57  59
ATOM     59  CG1 ILE A   1      29.024 -20.593  36.352  0.00  0.00    +0.002 C 
ATOM     60  CD1 ILE A   1      28.426 -21.980  36.114  0.00  0.00    +0.000 C 
ENDBRANCH  57  59
ENDBRANCH  56  57
BRANCH  56  61
ATOM     61  N   ILE A   1      28.992 -17.712  35.310  0.00  0.00    -0.238 NA
ATOM     62  H   ILE A   1      28.323 -17.754  34.515  0.00  0.00    +0.142 HD
ENDBRANCH  56  61
ENDBRANCH  54  56
ENDBRANCH  51  52
BRANCH  51  63
ATOM     63  CB  THR A   2      34.400 -16.615  33.596  0.00  0.00    +0.137 C 
ATOM     64  CG2 THR A   2      35.342 -16.090  32.489  0.00  0.00    +0.034 C 
BRANCH  63  65
ATOM     65  OG1 THR A   2      34.150 -15.597  34.582  0.00  0.00    -0.382 OA
ATOM     66  HG1 THR A   2      35.012 -15.275  34.948  0.00  0.00    +0.210 HD
ENDBRANCH  63  65
ENDBRANCH  51  63
ENDBRANCH  48  51
ENDBRANCH  46  47
BRANCH  46  67
ATOM     67  CB  SER A   3      31.057 -19.181  29.447  0.00  0.00    +0.166 C 
BRANCH  67  68
ATOM     68  OG  SER A   3      30.878 -20.169  28.449  0.00  0.00    -0.380 OA
ATOM     69  H   SER A   3      29.912 -20.277  28.263  0.00  0.00    +0.211 HD
ENDBRANCH  67  68
ENDBRANCH  46  67
ENDBRANCH  43  46
ENDBRANCH  41  42
BRANCH  41  70
ATOM     70  CB  TRP A   4      33.267 -18.397  25.425  0.00  0.00    +0.057 C 
BRANCH  70  71
ATOM     71  CG  TRP A   4      31.838 -18.214  24.993  0.00  0.00    -0.002 A 
ATOM     72  CD1 TRP A   4      30.722 -18.718  25.593  0.00  0.00    +0.068 A 
ATOM     73  NE1 TRP A   4      29.591 -18.295  24.922  0.00  0.00    -0.352 N 
ATOM     74  HE1 TRP A   4      28.612 -18.528  25.183  0.00  0.00    +0.166 HD
ATOM     75  CE2 TRP A   4      29.969 -17.516  23.853  0.00  0.00    +0.056 A 
ATOM     76  CZ2 TRP A   4      29.196 -16.858  22.885  0.00  0.00    +0.017 A 
ATOM     77  CH2 TRP A   4      29.864 -16.095  21.948  0.00  0.00    +0.001 A 
ATOM     78  CZ3 TRP A   4      31.266 -15.973  21.954  0.00  0.00    +0.000 A 
ATOM     79  CE3 TRP A   4      32.032 -16.610  22.920  0.00  0.00    +0.001 A 
ATOM     80  CD2 TRP A   4      31.379 -17.402  23.897  0.00  0.00    +0.013 A 
ENDBRANCH  70  71
ENDBRANCH  41  70
ENDBRANCH  38  41
ENDBRANCH  36  37
ENDBRANCH  33  36
ENDBRANCH  31  32
BRANCH  31  81
ATOM     81  CB  GLU A   6      35.212 -12.434  20.079  0.00  0.00    +0.041 C 
BRANCH  81  82
ATOM     82  CG  GLU A   6      35.998 -12.312  18.775  0.00  0.00    +0.116 C 
BRANCH  82  83
ATOM     83  CD  GLU A   6      36.796 -13.545  18.401  0.00  0.00    +0.365 C 
ATOM     84  OE2 GLU A   6      38.040 -13.457  18.321  0.00  0.00    -0.246 OA
ATOM     85  OE1 GLU A   6      36.187 -14.630  18.315  0.00  0.00    -0.246 OA
ENDBRANCH  82  83
ENDBRANCH  81  82
ENDBRANCH  31  81
ENDBRANCH  29  31
ENDBRANCH  26  27
ENDBRANCH  23  26
ENDBRANCH   1  22
BRANCH   1  86
ATOM     86  CB  CYS A   8      41.047 -10.585  26.771  0.00  0.00    +0.098 C 
BRANCH  86  87
ATOM     87  SG  CYS A   8      41.502 -12.338  26.737  0.00  0.00    -0.080 S 
BRANCH  87  88
ATOM     88  SG  TRP A   4      42.841 -12.531  28.287  0.00  0.00    -0.080 S 
BRANCH  88  89
ATOM     89  CB  TRP A   4      41.878 -12.402  29.816  0.00  0.00    +0.098 C 
BRANCH  89  90
ATOM     90  CA  TRP A   4      40.687 -13.364  29.893  0.00  0.00    +0.160 C 
BRANCH  90  91
ATOM     91  C   TRP A   4      41.107 -14.851  30.114  0.00  0.00    +0.242 C 
ATOM     92  O   TRP A   4      40.494 -15.527  30.936  0.00  0.00    -0.273 OA
ATOM     93  N   GLY A   5      42.066 -15.373  29.340  0.00  0.00    -0.297 N 
ATOM     94  H   GLY A   5      42.494 -14.757  28.620  0.00  0.00    +0.150 HD
BRANCH  93  95
ATOM     95  CA  GLY A   5      42.558 -16.758  29.436  0.00  0.00    +0.149 C 
BRANCH  95  96
ATOM     96  C   GLY A   5      42.977 -17.101  30.865  0.00  0.00    +0.241 C 
ATOM     97  O   GLY A   5      43.791 -16.375  31.452  0.00  0.00    -0.273 OA
ATOM     98  N   GLU A   6      42.386 -18.164  31.416  0.00  0.00    -0.295 N 
ATOM     99  H   GLU A   6      41.700 -18.697  30.844  0.00  0.00    +0.150 HD
BRANCH  98 100
ATOM    100  CA  GLU A   6      42.651 -18.623  32.787  0.00  0.00    +0.176 C 
BRANCH 100 101
ATOM    101  C   GLU A   6      41.599 -18.215  33.802  0.00  0.00    +0.243 C 
ATOM    102  O   GLU A   6      41.624 -18.670  34.960  0.00  0.00    -0.273 OA
ATOM    103  N   GLY A   7      40.654 -17.360  33.386  0.00  0.00    -0.296 N 
ATOM    104  H   GLY A   7      40.694 -16.984  32.417  0.00  0.00    +0.150 HD
BRANCH 103 105
ATOM    105  CA  GLY A   7      39.559 -16.945  34.282  0.00  0.00    +0.160 C 
BRANCH 105 106
ATOM    106  C   GLY A   7      38.313 -17.853  34.192  0.00  0.00    +0.241 C 
ATOM    107  O   GLY A   7      37.514 -17.895  35.141  0.00  0.00    -0.273 OA
ATOM    108  N   CYS A   8      38.161 -18.585  33.066  0.00  0.00    -0.295 N 
ATOM    109  H   CYS A   8      38.909 -18.552  32.344  0.00  0.00    +0.150 HD
BRANCH 108 110
ATOM    110  CA  CYS A   8      36.980 -19.426  32.821  0.00  0.00    +0.178 C 
BRANCH 110 111
ATOM    111  C   CYS A   8      36.678 -20.415  33.968  0.00  0.00    +0.243 C 
ATOM    112  O   CYS A   8      37.599 -20.896  34.648  0.00  0.00    -0.273 OA
ATOM    113  N   ALA A   9      35.383 -20.596  34.233  0.00  0.00    -0.295 N 
ATOM    114  H   ALA A   9      34.678 -20.115  33.639  0.00  0.00    +0.150 HD
BRANCH 113 115
ATOM    115  CA  ALA A   9      34.920 -21.446  35.328  0.00  0.00    +0.176 C 
BRANCH 115 116
ATOM    116  C   ALA A   9      34.724 -20.666  36.609  0.00  0.00    +0.243 C 
ATOM    117  O   ALA A   9      34.007 -21.102  37.522  0.00  0.00    -0.273 OA
ATOM    118  N   GLN A  10      35.375 -19.503  36.675  0.00  0.00    -0.296 N 
ATOM    119  H   GLN A  10      35.963 -19.213  35.868  0.00  0.00    +0.150 HD
BRANCH 118 120
ATOM    120  CA  GLN A  10      35.294 -18.629  37.827  0.00  0.00    +0.163 C 
BRANCH 120 121
ATOM    121  C   GLN A  10      33.951 -17.940  37.904  0.00  0.00    +0.229 C 
ATOM    122  O   GLN A  10      33.136 -18.034  36.974  0.00  0.00    -0.286 OA
ENDBRANCH 120 121
ENDBRANCH 118 120
ENDBRANCH 115 116
ENDBRANCH 113 115
ENDBRANCH 110 111
BRANCH 110 123
ATOM    123  CB  CYS A   8      37.042 -20.122  31.474  0.00  0.00    +0.166 C 
BRANCH 123 124
ATOM    124  O   CYS A   8      37.942 -21.211  31.534  0.00  0.00    -0.380 OA
ATOM    125  H   CYS A   8      38.844 -20.879  31.772  0.00  0.00    +0.211 HD
ENDBRANCH 123 124
ENDBRANCH 110 123
ENDBRANCH 108 110
ENDBRANCH 105 106
BRANCH 105 126
ATOM    126  CB  GLY A   7      39.169 -15.483  34.045  0.00  0.00    +0.143 C 
BRANCH 126 127
ATOM    127  CG  GLY A   7      40.296 -14.533  34.347  0.00  0.00    +0.367 C 
ATOM    128  OD2 GLY A   7      40.902 -14.659  35.444  0.00  0.00    -0.246 OA
ATOM    129  OD1 GLY A   7      40.585 -13.652  33.485  0.00  0.00    -0.246 OA
ENDBRANCH 126 127
ENDBRANCH 105 126
ENDBRANCH 103 105
ENDBRANCH 100 101
ENDBRANCH  98 100
ENDBRANCH  95  96
BRANCH  95 130
ATOM    130  CB  GLY A   5      43.742 -16.972  28.481  0.00  0.00    +0.029 C 
BRANCH 130 131
ATOM    131  CG  GLY A   5      43.366 -16.838  27.011  0.00  0.00    +0.000 C 
BRANCH 131 132
ATOM    132  CD  GLY A   5      44.568 -16.326  26.231  0.00  0.00    -0.024 C 
BRANCH 132 133
ATOM    133  CE  GLY A   5      44.537 -16.591  24.749  0.00  0.00    -0.086 C 
BRANCH 133 134
ATOM    134  NZ  GLY A   5      45.833 -16.183  24.136  0.00  0.00    +0.380 N 
ATOM    135  HZ1 GLY A   5      46.606 -16.729  24.567  0.00  0.00    -0.089 HD
ATOM    136  HZ2 GLY A   5      45.989 -15.168  24.301  0.00  0.00    -0.089 HD
ATOM    137  HZ3 GLY A   5      45.805 -16.369  23.113  0.00  0.00    -0.089 HD
ENDBRANCH 133 134
ENDBRANCH 132 133
ENDBRANCH 131 132
ENDBRANCH 130 131
ENDBRANCH  95 130
ENDBRANCH  93  95
ENDBRANCH  90  91
BRANCH  90 139
ATOM    138  C   SER A   3      38.784 -12.135  30.764  0.00  0.00    +0.241 C 
ATOM    139  N   TRP A   4      39.776 -12.978  30.952  0.00  0.00    -0.296 N 
ATOM    140  H   TRP A   4      39.912 -13.384  31.900  0.00  0.00    +0.150 HD
ATOM    141  O   SER A   3      38.634 -11.523  29.702  0.00  0.00    -0.273 OA
BRANCH 138 142
ATOM    142  CA  SER A   3      37.821 -11.916  31.952  0.00  0.00    +0.149 C 
ATOM    143  CB  SER A   3      36.784 -13.033  31.978  0.00  0.00    +0.031 C 
BRANCH 142 146
ATOM    144  C   THR A   2      37.719  -9.459  31.827  0.00  0.00    +0.241 C 
ATOM    145  O   THR A   2      38.843  -9.285  32.279  0.00  0.00    -0.273 OA
ATOM    146  N   SER A   3      37.160 -10.654  31.695  0.00  0.00    -0.297 N 
ATOM    147  H   SER A   3      36.169 -10.687  31.382  0.00  0.00    +0.150 HD
BRANCH 144 148
ATOM    148  CA  THR A   2      36.947  -8.315  31.197  0.00  0.00    +0.160 C 
BRANCH 148 150
ATOM    149  C   ILE A   1      36.964  -5.867  31.222  0.00  0.00    +0.238 C 
ATOM    150  N   THR A   2      37.549  -7.030  31.538  0.00  0.00    -0.297 N 
ATOM    151  H   THR A   2      38.459  -7.017  32.041  0.00  0.00    +0.150 HD
ATOM    152  O   ILE A   1      35.854  -5.781  30.677  0.00  0.00    -0.274 OA
BRANCH 149 153
ATOM    153  CA  ILE A   1      37.743  -4.621  31.566  0.00  0.00    +0.145 C 
BRANCH 153 154
ATOM    154  N   ILE A   1      37.885  -3.784  30.363  0.00  0.00    -0.238 NA
ATOM    155  H   ILE A   1      37.038  -3.595  29.789  0.00  0.00    +0.142 HD
ENDBRANCH 153 154
BRANCH 153 156
ATOM    156  CB  ILE A   1      37.080  -3.855  32.724  0.00  0.00    +0.026 C 
BRANCH 156 157
ATOM    157  CG  ILE A   1      37.975  -2.814  33.348  0.00  0.00    -0.000 C 
BRANCH 157 158
ATOM    158  CD  ILE A   1      37.173  -1.933  34.257  0.00  0.00    -0.024 C 
BRANCH 158 159
ATOM    159  CE  ILE A   1      38.013  -1.062  35.146  0.00  0.00    -0.086 C 
BRANCH 159 160
ATOM    160  NZ  ILE A   1      37.203  -0.604  36.304  0.00  0.00    +0.380 N 
ATOM    161  HZ1 ILE A   1      37.788  -0.001  36.918  0.00  0.00    -0.089 HD
ATOM    162  HZ2 ILE A   1      36.871  -1.430  36.842  0.00  0.00    -0.089 HD
ATOM    163  HZ3 ILE A   1      36.385  -0.061  35.960  0.00  0.00    -0.089 HD
ENDBRANCH 159 160
ENDBRANCH 158 159
ENDBRANCH 157 158
ENDBRANCH 156 157
ENDBRANCH 153 156
ENDBRANCH 149 153
ENDBRANCH 148 150
BRANCH 148 164
ATOM    164  CB  THR A   2      37.061  -8.512  29.647  0.00  0.00    +0.143 C 
BRANCH 164 165
ATOM    165  CG  THR A   2      36.143  -9.543  28.999  0.00  0.00    +0.367 C 
ATOM    166  OD2 THR A   2      35.235 -10.070  29.709  0.00  0.00    -0.246 OA
ATOM    167  OD1 THR A   2      36.319  -9.816  27.773  0.00  0.00    -0.246 OA
ENDBRANCH 164 165
ENDBRANCH 148 164
ENDBRANCH 144 148
ENDBRANCH 142 146
ENDBRANCH 138 142
ENDBRANCH  90 139
ENDBRANCH  89  90
ENDBRANCH  88  89
ENDBRANCH  87  88
ENDBRANCH  86  87
ENDBRANCH   1  86
TORSDOF 75
REMARK  Name = ../refined-set-2016/4x6m/4x6m_pocket.pdb
REMARK  231 active torsions:
REMARK  status: ('A' for Active; 'I' for Inactive)
REMARK    1  A    between atoms: _1  and  _5
REMARK    2  A    between atoms: _5  and  _6
REMARK    3  A    between atoms: _5  and  _8
REMARK    4  A    between atoms: _8  and  _9
REMARK    5  A    between atoms: _12  and  _14
REMARK    6  A    between atoms: _14  and  _15
REMARK    7  A    between atoms: _14  and  _17
REMARK    8  A    between atoms: _20  and  _22
REMARK    9  A    between atoms: _22  and  _23
REMARK   10  A    between atoms: _22  and  _25
REMARK   11  A    between atoms: _25  and  _26
REMARK   12  A    between atoms: _29  and  _31
REMARK   13  A    between atoms: _31  and  _32
REMARK   14  A    between atoms: _31  and  _34
REMARK   15  A    between atoms: _34  and  _35
REMARK   16  A    between atoms: _40  and  _42
REMARK   17  A    between atoms: _42  and  _43
REMARK   18  A    between atoms: _42  and  _45
REMARK   19  A    between atoms: _45  and  _46
REMARK   20  A    between atoms: _49  and  _51
REMARK   21  A    between atoms: _51  and  _52
REMARK   22  A    between atoms: _51  and  _54
REMARK   23  A    between atoms: _54  and  _55
REMARK   24  A    between atoms: _58  and  _60
REMARK   25  A    between atoms: _60  and  _61
REMARK   26  A    between atoms: _60  and  _63
REMARK   27  A    between atoms: _63  and  _64
REMARK   28  A    between atoms: _64  and  _65
REMARK   29  A    between atoms: _70  and  _72
REMARK   30  A    between atoms: _72  and  _73
REMARK   31  A    between atoms: _72  and  _75
REMARK   32  A    between atoms: _75  and  _76
REMARK   33  A    between atoms: _76  and  _77
REMARK   34  A    between atoms: _77  and  _78
REMARK   35  A    between atoms: _87  and  _89
REMARK   36  A    between atoms: _89  and  _90
REMARK   37  A    between atoms: _89  and  _92
REMARK   38  A    between atoms: _92  and  _93
REMARK   39  A    between atoms: _98  and  _100
REMARK   40  A    between atoms: _100  and  _101
REMARK   41  A    between atoms: _100  and  _103
REMARK   42  A    between atoms: _103  and  _104
REMARK   43  A    between atoms: _107  and  _109
REMARK   44  A    between atoms: _109  and  _110
REMARK   45  A    between atoms: _109  and  _112
REMARK   46  A    between atoms: _112  and  _113
REMARK   47  A    between atoms: _113  and  _148
REMARK   48  A    between atoms: _114  and  _116
REMARK   49  A    between atoms: _116  and  _117
REMARK   50  A    between atoms: _119  and  _121
REMARK   51  A    between atoms: _121  and  _122
REMARK   52  A    between atoms: _125  and  _127
REMARK   53  A    between atoms: _127  and  _128
REMARK   54  A    between atoms: _131  and  _133
REMARK   55  A    between atoms: _133  and  _134
REMARK   56  A    between atoms: _133  and  _136
REMARK   57  A    between atoms: _136  and  _137
REMARK   58  A    between atoms: _142  and  _144
REMARK   59  A    between atoms: _144  and  _145
REMARK   60  A    between atoms: _144  and  _147
REMARK   61  A    between atoms: _147  and  _148
REMARK   62  A    between atoms: _149  and  _151
REMARK   63  A    between atoms: _151  and  _152
REMARK   64  A    between atoms: _151  and  _154
REMARK   65  A    between atoms: _154  and  _155
REMARK   66  A    between atoms: _161  and  _163
REMARK   67  A    between atoms: _163  and  _164
REMARK   68  A    between atoms: _163  and  _166
REMARK   69  A    between atoms: _166  and  _167
REMARK   70  A    between atoms: _172  and  _173
REMARK   71  A    between atoms: _175  and  _177
REMARK   72  A    between atoms: _177  and  _178
REMARK   73  A    between atoms: _177  and  _180
REMARK   74  A    between atoms: _183  and  _185
REMARK   75  A    between atoms: _185  and  _186
REMARK   76  A    between atoms: _189  and  _191
REMARK   77  A    between atoms: _191  and  _192
REMARK   78  A    between atoms: _191  and  _194
REMARK   79  A    between atoms: _194  and  _195
REMARK   80  A    between atoms: _198  and  _200
REMARK   81  A    between atoms: _200  and  _201
REMARK   82  A    between atoms: _200  and  _203
REMARK   83  A    between atoms: _206  and  _208
REMARK   84  A    between atoms: _208  and  _209
REMARK   85  A    between atoms: _208  and  _211
REMARK   86  A    between atoms: _211  and  _212
REMARK   87  A    between atoms: _222  and  _224
REMARK   88  A    between atoms: _224  and  _225
REMARK   89  A    between atoms: _227  and  _229
REMARK   90  A    between atoms: _229  and  _230
REMARK   91  A    between atoms: _229  and  _232
REMARK   92  A    between atoms: _232  and  _233
REMARK   93  A    between atoms: _238  and  _239
REMARK   94  A    between atoms: _241  and  _243
REMARK   95  A    between atoms: _243  and  _244
REMARK   96  A    between atoms: _243  and  _246
REMARK   97  A    between atoms: _246  and  _247
REMARK   98  A    between atoms: _250  and  _252
REMARK   99  A    between atoms: _252  and  _253
REMARK  100  A    between atoms: _252  and  _255
REMARK  101  A    between atoms: _255  and  _256
REMARK  102  A    between atoms: _259  and  _261
REMARK  103  A    between atoms: _261  and  _262
REMARK  104  A    between atoms: _261  and  _264
REMARK  105  A    between atoms: _264  and  _265
REMARK  106  A    between atoms: _265  and  _266
REMARK  107  A    between atoms: _266  and  _267
REMARK  108  A    between atoms: _267  and  _268
REMARK  109  A    between atoms: _272  and  _274
REMARK  110  A    between atoms: _274  and  _275
REMARK  111  A    between atoms: _274  and  _277
REMARK  112  A    between atoms: _277  and  _278
REMARK  113  A    between atoms: _281  and  _283
REMARK  114  A    between atoms: _283  and  _284
REMARK  115  A    between atoms: _283  and  _286
REMARK  116  A    between atoms: _286  and  _287
REMARK  117  A    between atoms: _287  and  _288
REMARK  118  A    between atoms: _293  and  _295
REMARK  119  A    between atoms: _295  and  _296
REMARK  120  A    between atoms: _295  and  _298
REMARK  121  A    between atoms: _298  and  _299
REMARK  122  A    between atoms: _304  and  _305
REMARK  123  A    between atoms: _307  and  _309
REMARK  124  A    between atoms: _309  and  _310
REMARK  125  A    between atoms: _309  and  _312
REMARK  126  A    between atoms: _312  and  _313
REMARK  127  A    between atoms: _316  and  _318
REMARK  128  A    between atoms: _318  and  _319
REMARK  129  A    between atoms: _318  and  _321
REMARK  130  A    between atoms: _323  and  _325
REMARK  131  A    between atoms: _325  and  _326
REMARK  132  A    between atoms: _329  and  _331
REMARK  133  A    between atoms: _331  and  _332
REMARK  134  A    between atoms: _331  and  _334
REMARK  135  A    between atoms: _334  and  _335
REMARK  136  A    between atoms: _335  and  _336
REMARK  137  A    between atoms: _336  and  _337
REMARK  138  A    between atoms: _337  and  _338
REMARK  139  A    between atoms: _342  and  _344
REMARK  140  A    between atoms: _344  and  _345
REMARK  141  A    between atoms: _344  and  _347
REMARK  142  A    between atoms: _347  and  _348
REMARK  143  A    between atoms: _351  and  _353
REMARK  144  A    between atoms: _353  and  _354
REMARK  145  A    between atoms: _357  and  _359
REMARK  146  A    between atoms: _359  and  _360
REMARK  147  A    between atoms: _359  and  _362
REMARK  148  A    between atoms: _362  and  _363
REMARK  149  A    between atoms: _363  and  _486
REMARK  150  A    between atoms: _364  and  _366
REMARK  151  A    between atoms: _366  and  _367
REMARK  152  A    between atoms: _366  and  _369
REMARK  153  A    between atoms: _369  and  _370
REMARK  154  A    between atoms: _370  and  _371
REMARK  155  A    between atoms: _371  and  _372
REMARK  156  A    between atoms: _372  and  _373
REMARK  157  A    between atoms: _377  and  _379
REMARK  158  A    between atoms: _379  and  _380
REMARK  159  A    between atoms: _382  and  _384
REMARK  160  A    between atoms: _384  and  _385
REMARK  161  A    between atoms: _384  and  _387
REMARK  162  A    between atoms: _387  and  _388
REMARK  163  A    between atoms: _391  and  _393
REMARK  164  A    between atoms: _393  and  _394
REMARK  165  A    between atoms: _393  and  _396
REMARK  166  A    between atoms: _396  and  _397
REMARK  167  A    between atoms: _399  and  _401
REMARK  168  A    between atoms: _401  and  _402
REMARK  169  A    between atoms: _404  and  _406
REMARK  170  A    between atoms: _406  and  _407
REMARK  171  A    between atoms: _409  and  _411
REMARK  172  A    between atoms: _411  and  _412
REMARK  173  A    between atoms: _411  and  _414
REMARK  174  A    between atoms: _414  and  _415
REMARK  175  A    between atoms: _418  and  _420
REMARK  176  A    between atoms: _420  and  _421
REMARK  177  A    between atoms: _420  and  _423
REMARK  178  A    between atoms: _423  and  _424
REMARK  179  A    between atoms: _427  and  _429
REMARK  180  A    between atoms: _429  and  _430
REMARK  181  A    between atoms: _429  and  _432
REMARK  182  A    between atoms: _432  and  _433
REMARK  183  A    between atoms: _436  and  _438
REMARK  184  A    between atoms: _438  and  _439
REMARK  185  A    between atoms: _438  and  _441
REMARK  186  A    between atoms: _441  and  _442
REMARK  187  A    between atoms: _444  and  _446
REMARK  188  A    between atoms: _446  and  _447
REMARK  189  A    between atoms: _446  and  _449
REMARK  190  A    between atoms: _449  and  _450
REMARK  191  A    between atoms: _460  and  _462
REMARK  192  A    between atoms: _462  and  _463
REMARK  193  A    between atoms: _465  and  _467
REMARK  194  A    between atoms: _467  and  _468
REMARK  195  A    between atoms: _467  and  _470
REMARK  196  A    between atoms: _470  and  _471
REMARK  197  A    between atoms: _471  and  _472
REMARK  198  A    between atoms: _475  and  _477
REMARK  199  A    between atoms: _477  and  _478
REMARK  200  A    between atoms: _480  and  _482
REMARK  201  A    between atoms: _482  and  _483
REMARK  202  A    between atoms: _482  and  _485
REMARK  203  A    between atoms: _485  and  _486
REMARK  204  A    between atoms: _487  and  _489
REMARK  205  A    between atoms: _489  and  _490
REMARK  206  A    between atoms: _493  and  _495
REMARK  207  A    between atoms: _495  and  _496
REMARK  208  A    between atoms: _495  and  _498
REMARK  209  A    between atoms: _498  and  _499
REMARK  210  A    between atoms: _499  and  _500
REMARK  211  A    between atoms: _505  and  _507
REMARK  212  A    between atoms: _507  and  _508
REMARK  213  A    between atoms: _507  and  _510
REMARK  214  A    between atoms: _510  and  _511
REMARK  215  A    between atoms: _511  and  _512
REMARK  216  A    between atoms: _512  and  _513
REMARK  217  A    between atoms: _523  and  _524
REMARK  218  A    between atoms: _529  and  _531
REMARK  219  A    between atoms: _531  and  _532
REMARK  220  A    between atoms: _534  and  _536
REMARK  221  A    between atoms: _536  and  _537
REMARK  222  A    between atoms: _536  and  _539
REMARK  223  A    between atoms: _542  and  _544
REMARK  224  A    between atoms: _544  and  _545
REMARK  225  A    between atoms: _544  and  _547
REMARK  226  A    between atoms: _547  and  _548
REMARK  227  A    between atoms: _553  and  _554
REMARK  228  A    between atoms: _556  and  _558
REMARK  229  A    between atoms: _558  and  _559
REMARK  230  A    between atoms: _558  and  _561
REMARK  231  A    between atoms: _561  and  _562
REMARK                            x       y       z     vdW  Elec       q    Type
REMARK                         _______ _______ _______ _____ _____    ______ ____
ROOT
ATOM      1  CA  LEU A   1      30.646 -13.320  38.023  0.00  0.00    +0.133 C 
ENDROOT
BRANCH   1   2
ATOM      2  N   LEU A   1      31.091 -14.680  38.294  0.00  0.00    -0.239 NA
ATOM      3  H   LEU A   1      30.361 -15.421  38.296  0.00  0.00    +0.142 HD
ENDBRANCH   1   2
BRANCH   1   4
ATOM      4  C   LEU A   1      29.707 -13.109  39.243  0.00  0.00    +0.224 C 
ATOM      5  O   LEU A   1      28.614 -13.664  39.292  0.00  0.00    -0.287 OA
ENDBRANCH   1   4
BRANCH   1   6
ATOM      6  CB  LEU A   1      29.915 -13.140  36.672  0.00  0.00    +0.025 C 
BRANCH   6   7
ATOM      7  CG  LEU A   1      29.282 -11.756  36.450  0.00  0.00    +0.002 C 
ATOM      8  CD2 LEU A   1      30.372 -10.655  36.323  0.00  0.00    +0.000 C 
ATOM      9  CD1 LEU A   1      28.392 -11.752  35.187  0.00  0.00    +0.000 C 
ENDBRANCH   6   7
ENDBRANCH   1   6
TORSDOF 4
REMARK  Name = ../refined-set-2016/4x6m/4x6m_pocket.pdb
REMARK  231 active torsions:
REMARK  status: ('A' for Active; 'I' for Inactive)
REMARK    1  A    between atoms: _1  and  _5
REMARK    2  A    between atoms: _5  and  _6
REMARK    3  A    between atoms: _5  and  _8
REMARK    4  A    between atoms: _8  and  _9
REMARK    5  A    between atoms: _12  and  _14
REMARK    6  A    between atoms: _14  and  _15
REMARK    7  A    between atoms: _14  and  _17
REMARK    8  A    between atoms: _20  and  _22
REMARK    9  A    between atoms: _22  and  _23
REMARK   10  A    between atoms: _22  and  _25
REMARK   11  A    between atoms: _25  and  _26
REMARK   12  A    between atoms: _29  and  _31
REMARK   13  A    between atoms: _31  and  _32
REMARK   14  A    between atoms: _31  and  _34
REMARK   15  A    between atoms: _34  and  _35
REMARK   16  A    between atoms: _40  and  _42
REMARK   17  A    between atoms: _42  and  _43
REMARK   18  A    between atoms: _42  and  _45
REMARK   19  A    between atoms: _45  and  _46
REMARK   20  A    between atoms: _49  and  _51
REMARK   21  A    between atoms: _51  and  _52
REMARK   22  A    between atoms: _51  and  _54
REMARK   23  A    between atoms: _54  and  _55
REMARK   24  A    between atoms: _58  and  _60
REMARK   25  A    between atoms: _60  and  _61
REMARK   26  A    between atoms: _60  and  _63
REMARK   27  A    between atoms: _63  and  _64
REMARK   28  A    between atoms: _64  and  _65
REMARK   29  A    between atoms: _70  and  _72
REMARK   30  A    between atoms: _72  and  _73
REMARK   31  A    between atoms: _72  and  _75
REMARK   32  A    between atoms: _75  and  _76
REMARK   33  A    between atoms: _76  and  _77
REMARK   34  A    between atoms: _77  and  _78
REMARK   35  A    between atoms: _87  and  _89
REMARK   36  A    between atoms: _89  and  _90
REMARK   37  A    between atoms: _89  and  _92
REMARK   38  A    between atoms: _92  and  _93
REMARK   39  A    between atoms: _98  and  _100
REMARK   40  A    between atoms: _100  and  _101
REMARK   41  A    between atoms: _100  and  _103
REMARK   42  A    between atoms: _103  and  _104
REMARK   43  A    between atoms: _107  and  _109
REMARK   44  A    between atoms: _109  and  _110
REMARK   45  A    between atoms: _109  and  _112
REMARK   46  A    between atoms: _112  and  _113
REMARK   47  A    between atoms: _113  and  _148
REMARK   48  A    between atoms: _114  and  _116
REMARK   49  A    between atoms: _116  and  _117
REMARK   50  A    between atoms: _119  and  _121
REMARK   51  A    between atoms: _121  and  _122
REMARK   52  A    between atoms: _125  and  _127
REMARK   53  A    between atoms: _127  and  _128
REMARK   54  A    between atoms: _131  and  _133
REMARK   55  A    between atoms: _133  and  _134
REMARK   56  A    between atoms: _133  and  _136
REMARK   57  A    between atoms: _136  and  _137
REMARK   58  A    between atoms: _142  and  _144
REMARK   59  A    between atoms: _144  and  _145
REMARK   60  A    between atoms: _144  and  _147
REMARK   61  A    between atoms: _147  and  _148
REMARK   62  A    between atoms: _149  and  _151
REMARK   63  A    between atoms: _151  and  _152
REMARK   64  A    between atoms: _151  and  _154
REMARK   65  A    between atoms: _154  and  _155
REMARK   66  A    between atoms: _161  and  _163
REMARK   67  A    between atoms: _163  and  _164
REMARK   68  A    between atoms: _163  and  _166
REMARK   69  A    between atoms: _166  and  _167
REMARK   70  A    between atoms: _172  and  _173
REMARK   71  A    between atoms: _175  and  _177
REMARK   72  A    between atoms: _177  and  _178
REMARK   73  A    between atoms: _177  and  _180
REMARK   74  A    between atoms: _183  and  _185
REMARK   75  A    between atoms: _185  and  _186
REMARK   76  A    between atoms: _189  and  _191
REMARK   77  A    between atoms: _191  and  _192
REMARK   78  A    between atoms: _191  and  _194
REMARK   79  A    between atoms: _194  and  _195
REMARK   80  A    between atoms: _198  and  _200
REMARK   81  A    between atoms: _200  and  _201
REMARK   82  A    between atoms: _200  and  _203
REMARK   83  A    between atoms: _206  and  _208
REMARK   84  A    between atoms: _208  and  _209
REMARK   85  A    between atoms: _208  and  _211
REMARK   86  A    between atoms: _211  and  _212
REMARK   87  A    between atoms: _222  and  _224
REMARK   88  A    between atoms: _224  and  _225
REMARK   89  A    between atoms: _227  and  _229
REMARK   90  A    between atoms: _229  and  _230
REMARK   91  A    between atoms: _229  and  _232
REMARK   92  A    between atoms: _232  and  _233
REMARK   93  A    between atoms: _238  and  _239
REMARK   94  A    between atoms: _241  and  _243
REMARK   95  A    between atoms: _243  and  _244
REMARK   96  A    between atoms: _243  and  _246
REMARK   97  A    between atoms: _246  and  _247
REMARK   98  A    between atoms: _250  and  _252
REMARK   99  A    between atoms: _252  and  _253
REMARK  100  A    between atoms: _252  and  _255
REMARK  101  A    between atoms: _255  and  _256
REMARK  102  A    between atoms: _259  and  _261
REMARK  103  A    between atoms: _261  and  _262
REMARK  104  A    between atoms: _261  and  _264
REMARK  105  A    between atoms: _264  and  _265
REMARK  106  A    between atoms: _265  and  _266
REMARK  107  A    between atoms: _266  and  _267
REMARK  108  A    between atoms: _267  and  _268
REMARK  109  A    between atoms: _272  and  _274
REMARK  110  A    between atoms: _274  and  _275
REMARK  111  A    between atoms: _274  and  _277
REMARK  112  A    between atoms: _277  and  _278
REMARK  113  A    between atoms: _281  and  _283
REMARK  114  A    between atoms: _283  and  _284
REMARK  115  A    between atoms: _283  and  _286
REMARK  116  A    between atoms: _286  and  _287
REMARK  117  A    between atoms: _287  and  _288
REMARK  118  A    between atoms: _293  and  _295
REMARK  119  A    between atoms: _295  and  _296
REMARK  120  A    between atoms: _295  and  _298
REMARK  121  A    between atoms: _298  and  _299
REMARK  122  A    between atoms: _304  and  _305
REMARK  123  A    between atoms: _307  and  _309
REMARK  124  A    between atoms: _309  and  _310
REMARK  125  A    between atoms: _309  and  _312
REMARK  126  A    between atoms: _312  and  _313
REMARK  127  A    between atoms: _316  and  _318
REMARK  128  A    between atoms: _318  and  _319
REMARK  129  A    between atoms: _318  and  _321
REMARK  130  A    between atoms: _323  and  _325
REMARK  131  A    between atoms: _325  and  _326
REMARK  132  A    between atoms: _329  and  _331
REMARK  133  A    between atoms: _331  and  _332
REMARK  134  A    between atoms: _331  and  _334
REMARK  135  A    between atoms: _334  and  _335
REMARK  136  A    between atoms: _335  and  _336
REMARK  137  A    between atoms: _336  and  _337
REMARK  138  A    between atoms: _337  and  _338
REMARK  139  A    between atoms: _342  and  _344
REMARK  140  A    between atoms: _344  and  _345
REMARK  141  A    between atoms: _344  and  _347
REMARK  142  A    between atoms: _347  and  _348
REMARK  143  A    between atoms: _351  and  _353
REMARK  144  A    between atoms: _353  and  _354
REMARK  145  A    between atoms: _357  and  _359
REMARK  146  A    between atoms: _359  and  _360
REMARK  147  A    between atoms: _359  and  _362
REMARK  148  A    between atoms: _362  and  _363
REMARK  149  A    between atoms: _363  and  _486
REMARK  150  A    between atoms: _364  and  _366
REMARK  151  A    between atoms: _366  and  _367
REMARK  152  A    between atoms: _366  and  _369
REMARK  153  A    between atoms: _369  and  _370
REMARK  154  A    between atoms: _370  and  _371
REMARK  155  A    between atoms: _371  and  _372
REMARK  156  A    between atoms: _372  and  _373
REMARK  157  A    between atoms: _377  and  _379
REMARK  158  A    between atoms: _379  and  _380
REMARK  159  A    between atoms: _382  and  _384
REMARK  160  A    between atoms: _384  and  _385
REMARK  161  A    between atoms: _384  and  _387
REMARK  162  A    between atoms: _387  and  _388
REMARK  163  A    between atoms: _391  and  _393
REMARK  164  A    between atoms: _393  and  _394
REMARK  165  A    between atoms: _393  and  _396
REMARK  166  A    between atoms: _396  and  _397
REMARK  167  A    between atoms: _399  and  _401
REMARK  168  A    between atoms: _401  and  _402
REMARK  169  A    between atoms: _404  and  _406
REMARK  170  A    between atoms: _406  and  _407
REMARK  171  A    between atoms: _409  and  _411
REMARK  172  A    between atoms: _411  and  _412
REMARK  173  A    between atoms: _411  and  _414
REMARK  174  A    between atoms: _414  and  _415
REMARK  175  A    between atoms: _418  and  _420
REMARK  176  A    between atoms: _420  and  _421
REMARK  177  A    between atoms: _420  and  _423
REMARK  178  A    between atoms: _423  and  _424
REMARK  179  A    between atoms: _427  and  _429
REMARK  180  A    between atoms: _429  and  _430
REMARK  181  A    between atoms: _429  and  _432
REMARK  182  A    between atoms: _432  and  _433
REMARK  183  A    between atoms: _436  and  _438
REMARK  184  A    between atoms: _438  and  _439
REMARK  185  A    between atoms: _438  and  _441
REMARK  186  A    between atoms: _441  and  _442
REMARK  187  A    between atoms: _444  and  _446
REMARK  188  A    between atoms: _446  and  _447
REMARK  189  A    between atoms: _446  and  _449
REMARK  190  A    between atoms: _449  and  _450
REMARK  191  A    between atoms: _460  and  _462
REMARK  192  A    between atoms: _462  and  _463
REMARK  193  A    between atoms: _465  and  _467
REMARK  194  A    between atoms: _467  and  _468
REMARK  195  A    between atoms: _467  and  _470
REMARK  196  A    between atoms: _470  and  _471
REMARK  197  A    between atoms: _471  and  _472
REMARK  198  A    between atoms: _475  and  _477
REMARK  199  A    between atoms: _477  and  _478
REMARK  200  A    between atoms: _480  and  _482
REMARK  201  A    between atoms: _482  and  _483
REMARK  202  A    between atoms: _482  and  _485
REMARK  203  A    between atoms: _485  and  _486
REMARK  204  A    between atoms: _487  and  _489
REMARK  205  A    between atoms: _489  and  _490
REMARK  206  A    between atoms: _493  and  _495
REMARK  207  A    between atoms: _495  and  _496
REMARK  208  A    between atoms: _495  and  _498
REMARK  209  A    between atoms: _498  and  _499
REMARK  210  A    between atoms: _499  and  _500
REMARK  211  A    between atoms: _505  and  _507
REMARK  212  A    between atoms: _507  and  _508
REMARK  213  A    between atoms: _507  and  _510
REMARK  214  A    between atoms: _510  and  _511
REMARK  215  A    between atoms: _511  and  _512
REMARK  216  A    between atoms: _512  and  _513
REMARK  217  A    between atoms: _523  and  _524
REMARK  218  A    between atoms: _529  and  _531
REMARK  219  A    between atoms: _531  and  _532
REMARK  220  A    between atoms: _534  and  _536
REMARK  221  A    between atoms: _536  and  _537
REMARK  222  A    between atoms: _536  and  _539
REMARK  223  A    between atoms: _542  and  _544
REMARK  224  A    between atoms: _544  and  _545
REMARK  225  A    between atoms: _544  and  _547
REMARK  226  A    between atoms: _547  and  _548
REMARK  227  A    between atoms: _553  and  _554
REMARK  228  A    between atoms: _556  and  _558
REMARK  229  A    between atoms: _558  and  _559
REMARK  230  A    between atoms: _558  and  _561
REMARK  231  A    between atoms: _561  and  _562
REMARK                            x       y       z     vdW  Elec       q    Type
REMARK                         _______ _______ _______ _____ _____    ______ ____
ROOT
ATOM      1  C   GLY A   3      30.937 -12.229  28.153  0.00  0.00    +0.243 C 
ATOM      2  O   GLY A   3      29.929 -11.649  28.545  0.00  0.00    -0.273 OA
ATOM      3  N   VAL A   4      30.914 -13.493  27.715  0.00  0.00    -0.297 N 
ATOM      4  H   VAL A   4      31.785 -13.895  27.314  0.00  0.00    +0.150 HD
ENDROOT
BRANCH   3   5
ATOM      5  CA  VAL A   4      29.712 -14.341  27.774  0.00  0.00    +0.149 C 
BRANCH   5   6
ATOM      6  C   VAL A   4      29.850 -15.309  28.940  0.00  0.00    +0.241 C 
ATOM      7  N   TYR A   5      28.793 -15.366  29.781  0.00  0.00    -0.297 N 
ATOM      8  H   TYR A   5      27.948 -14.814  29.529  0.00  0.00    +0.150 HD
ATOM      9  O   VAL A   4      30.900 -15.946  29.106  0.00  0.00    -0.273 OA
BRANCH   7  10
ATOM     10  CA  TYR A   5      28.747 -16.141  31.012  0.00  0.00    +0.153 C 
BRANCH  10  11
ATOM     11  C   TYR A   5      27.590 -17.072  31.027  0.00  0.00    +0.241 C 
ATOM     12  N   THR A   6      27.724 -18.224  31.718  0.00  0.00    -0.296 N 
ATOM     13  H   THR A   6      28.650 -18.472  32.121  0.00  0.00    +0.150 HD
ATOM     14  O   TYR A   5      26.570 -16.759  30.427  0.00  0.00    -0.273 OA
BRANCH  12  15
ATOM     15  CA  THR A   6      26.592 -19.129  31.910  0.00  0.00    +0.164 C 
BRANCH  15  16
ATOM     16  CB  THR A   6      27.054 -20.478  32.515  0.00  0.00    +0.136 C 
ATOM     17  CG2 THR A   6      25.907 -21.487  32.673  0.00  0.00    +0.034 C 
BRANCH  16  18
ATOM     18  OG1 THR A   6      28.076 -21.040  31.695  0.00  0.00    -0.382 OA
ATOM     19  HG1 THR A   6      28.371 -21.902  32.082  0.00  0.00    +0.210 HD
ENDBRANCH  16  18
ENDBRANCH  15  16
BRANCH  15  20
ATOM     20  C   THR A   6      25.648 -18.368  32.877  0.00  0.00    +0.229 C 
ATOM     21  O   THR A   6      26.120 -17.877  33.904  0.00  0.00    -0.286 OA
ENDBRANCH  15  20
ENDBRANCH  12  15
ENDBRANCH  10  11
BRANCH  10  22
ATOM     22  CB  TYR A   5      28.631 -15.191  32.227  0.00  0.00    +0.055 C 
BRANCH  22  23
ATOM     23  CG  TYR A   5      29.800 -14.234  32.372  0.00  0.00    -0.020 A 
ATOM     24  CD2 TYR A   5      30.809 -14.474  33.298  0.00  0.00    -0.001 A 
ATOM     25  CE2 TYR A   5      31.886 -13.601  33.438  0.00  0.00    +0.036 A 
ATOM     26  CZ  TYR A   5      31.965 -12.474  32.640  0.00  0.00    +0.134 A 
ATOM     27  CE1 TYR A   5      30.959 -12.203  31.723  0.00  0.00    +0.036 A 
ATOM     28  CD1 TYR A   5      29.878 -13.072  31.605  0.00  0.00    -0.001 A 
BRANCH  26  29
ATOM     29  OH  TYR A   5      33.021 -11.608  32.800  0.00  0.00    -0.506 OA
ATOM     30  HH  TYR A   5      32.932 -10.859  32.159  0.00  0.00    +0.292 HD
ENDBRANCH  26  29
ENDBRANCH  22  23
ENDBRANCH  10  22
ENDBRANCH   7  10
ENDBRANCH   5   6
BRANCH   5  31
ATOM     31  CB  VAL A   4      29.327 -15.017  26.430  0.00  0.00    +0.027 C 
ATOM     32  CG2 VAL A   4      27.956 -15.682  26.543  0.00  0.00    +0.002 C 
ATOM     33  CG1 VAL A   4      29.331 -13.992  25.276  0.00  0.00    +0.002 C 
ENDBRANCH   5  31
ENDBRANCH   3   5
BRANCH   1  34
ATOM     34  CA  GLY A   3      32.249 -11.474  28.062  0.00  0.00    +0.176 C 
BRANCH  34  36
ATOM     35  C   PRO A   2      31.537  -9.894  26.361  0.00  0.00    +0.241 C 
ATOM     36  N   GLY A   3      31.926 -10.141  27.597  0.00  0.00    -0.295 N 
ATOM     37  H   GLY A   3      32.004  -9.347  28.264  0.00  0.00    +0.150 HD
ATOM     38  O   PRO A   2      31.557 -10.724  25.477  0.00  0.00    -0.273 OA
BRANCH  35  42
ATOM     39  C   ARG A   1      32.514  -8.084  24.126  0.00  0.00    +0.241 C 
ATOM     40  O   ARG A   1      33.507  -8.229  24.848  0.00  0.00    -0.273 OA
ATOM     41  N   PRO A   2      31.251  -8.144  24.637  0.00  0.00    -0.272 N 
ATOM     42  CA  PRO A   2      31.071  -8.476  26.059  0.00  0.00    +0.152 C 
ATOM     43  CB  PRO A   2      29.541  -8.368  26.280  0.00  0.00    +0.031 C 
ATOM     44  CG  PRO A   2      28.971  -7.779  25.040  0.00  0.00    +0.024 C 
ATOM     45  CD  PRO A   2      29.948  -7.999  23.942  0.00  0.00    +0.094 C 
BRANCH  39  46
ATOM     46  CA  ARG A   1      32.705  -7.730  22.644  0.00  0.00    +0.145 C 
BRANCH  46  47
ATOM     47  N   ARG A   1      32.620  -6.276  22.511  0.00  0.00    -0.238 NA
ATOM     48  H   ARG A   1      33.161  -5.690  23.179  0.00  0.00    +0.142 HD
ENDBRANCH  46  47
BRANCH  46  49
ATOM     49  CB  ARG A   1      34.029  -8.294  22.062  0.00  0.00    +0.030 C 
BRANCH  49  50
ATOM     50  CG  ARG A   1      34.170  -8.235  20.541  0.00  0.00    +0.045 C 
BRANCH  50  51
ATOM     51  CD  ARG A   1      33.160  -9.077  19.752  0.00  0.00    +0.174 C 
BRANCH  51  52
ATOM     52  NE  ARG A   1      33.657  -9.309  18.387  0.00  0.00    -0.265 N 
ATOM     53  HE  ARG A   1      34.508  -8.790  18.091  0.00  0.00    +0.259 HD
ATOM     54  CZ  ARG A   1      33.101 -10.131  17.504  0.00  0.00    +0.342 C 
ATOM     55  NH2 ARG A   1      31.988 -10.783  17.806  0.00  0.00    -0.292 N 
ATOM     56 HH21 ARG A   1      31.545 -10.652  18.738  0.00  0.00    +0.255 HD
ATOM     57 HH22 ARG A   1      31.557 -11.425  17.111  0.00  0.00    +0.255 HD
ATOM     58  NH1 ARG A   1      33.646 -10.293  16.303  0.00  0.00    -0.292 N 
ATOM     59 HH11 ARG A   1      34.512  -9.775  16.051  0.00  0.00    +0.255 HD
ATOM     60 HH12 ARG A   1      33.207 -10.938  15.615  0.00  0.00    +0.255 HD
ENDBRANCH  51  52
ENDBRANCH  50  51
ENDBRANCH  49  50
ENDBRANCH  46  49
ENDBRANCH  39  46
ENDBRANCH  35  42
ENDBRANCH  34  36
ENDBRANCH   1  34
TORSDOF 21
REMARK  Name = ../refined-set-2016/4x6m/4x6m_pocket.pdb
REMARK  231 active torsions:
REMARK  status: ('A' for Active; 'I' for Inactive)
REMARK    1  A    between atoms: _1  and  _5
REMARK    2  A    between atoms: _5  and  _6
REMARK    3  A    between atoms: _5  and  _8
REMARK    4  A    between atoms: _8  and  _9
REMARK    5  A    between atoms: _12  and  _14
REMARK    6  A    between atoms: _14  and  _15
REMARK    7  A    between atoms: _14  and  _17
REMARK    8  A    between atoms: _20  and  _22
REMARK    9  A    between atoms: _22  and  _23
REMARK   10  A    between atoms: _22  and  _25
REMARK   11  A    between atoms: _25  and  _26
REMARK   12  A    between atoms: _29  and  _31
REMARK   13  A    between atoms: _31  and  _32
REMARK   14  A    between atoms: _31  and  _34
REMARK   15  A    between atoms: _34  and  _35
REMARK   16  A    between atoms: _40  and  _42
REMARK   17  A    between atoms: _42  and  _43
REMARK   18  A    between atoms: _42  and  _45
REMARK   19  A    between atoms: _45  and  _46
REMARK   20  A    between atoms: _49  and  _51
REMARK   21  A    between atoms: _51  and  _52
REMARK   22  A    between atoms: _51  and  _54
REMARK   23  A    between atoms: _54  and  _55
REMARK   24  A    between atoms: _58  and  _60
REMARK   25  A    between atoms: _60  and  _61
REMARK   26  A    between atoms: _60  and  _63
REMARK   27  A    between atoms: _63  and  _64
REMARK   28  A    between atoms: _64  and  _65
REMARK   29  A    between atoms: _70  and  _72
REMARK   30  A    between atoms: _72  and  _73
REMARK   31  A    between atoms: _72  and  _75
REMARK   32  A    between atoms: _75  and  _76
REMARK   33  A    between atoms: _76  and  _77
REMARK   34  A    between atoms: _77  and  _78
REMARK   35  A    between atoms: _87  and  _89
REMARK   36  A    between atoms: _89  and  _90
REMARK   37  A    between atoms: _89  and  _92
REMARK   38  A    between atoms: _92  and  _93
REMARK   39  A    between atoms: _98  and  _100
REMARK   40  A    between atoms: _100  and  _101
REMARK   41  A    between atoms: _100  and  _103
REMARK   42  A    between atoms: _103  and  _104
REMARK   43  A    between atoms: _107  and  _109
REMARK   44  A    between atoms: _109  and  _110
REMARK   45  A    between atoms: _109  and  _112
REMARK   46  A    between atoms: _112  and  _113
REMARK   47  A    between atoms: _113  and  _148
REMARK   48  A    between atoms: _114  and  _116
REMARK   49  A    between atoms: _116  and  _117
REMARK   50  A    between atoms: _119  and  _121
REMARK   51  A    between atoms: _121  and  _122
REMARK   52  A    between atoms: _125  and  _127
REMARK   53  A    between atoms: _127  and  _128
REMARK   54  A    between atoms: _131  and  _133
REMARK   55  A    between atoms: _133  and  _134
REMARK   56  A    between atoms: _133  and  _136
REMARK   57  A    between atoms: _136  and  _137
REMARK   58  A    between atoms: _142  and  _144
REMARK   59  A    between atoms: _144  and  _145
REMARK   60  A    between atoms: _144  and  _147
REMARK   61  A    between atoms: _147  and  _148
REMARK   62  A    between atoms: _149  and  _151
REMARK   63  A    between atoms: _151  and  _152
REMARK   64  A    between atoms: _151  and  _154
REMARK   65  A    between atoms: _154  and  _155
REMARK   66  A    between atoms: _161  and  _163
REMARK   67  A    between atoms: _163  and  _164
REMARK   68  A    between atoms: _163  and  _166
REMARK   69  A    between atoms: _166  and  _167
REMARK   70  A    between atoms: _172  and  _173
REMARK   71  A    between atoms: _175  and  _177
REMARK   72  A    between atoms: _177  and  _178
REMARK   73  A    between atoms: _177  and  _180
REMARK   74  A    between atoms: _183  and  _185
REMARK   75  A    between atoms: _185  and  _186
REMARK   76  A    between atoms: _189  and  _191
REMARK   77  A    between atoms: _191  and  _192
REMARK   78  A    between atoms: _191  and  _194
REMARK   79  A    between atoms: _194  and  _195
REMARK   80  A    between atoms: _198  and  _200
REMARK   81  A    between atoms: _200  and  _201
REMARK   82  A    between atoms: _200  and  _203
REMARK   83  A    between atoms: _206  and  _208
REMARK   84  A    between atoms: _208  and  _209
REMARK   85  A    between atoms: _208  and  _211
REMARK   86  A    between atoms: _211  and  _212
REMARK   87  A    between atoms: _222  and  _224
REMARK   88  A    between atoms: _224  and  _225
REMARK   89  A    between atoms: _227  and  _229
REMARK   90  A    between atoms: _229  and  _230
REMARK   91  A    between atoms: _229  and  _232
REMARK   92  A    between atoms: _232  and  _233
REMARK   93  A    between atoms: _238  and  _239
REMARK   94  A    between atoms: _241  and  _243
REMARK   95  A    between atoms: _243  and  _244
REMARK   96  A    between atoms: _243  and  _246
REMARK   97  A    between atoms: _246  and  _247
REMARK   98  A    between atoms: _250  and  _252
REMARK   99  A    between atoms: _252  and  _253
REMARK  100  A    between atoms: _252  and  _255
REMARK  101  A    between atoms: _255  and  _256
REMARK  102  A    between atoms: _259  and  _261
REMARK  103  A    between atoms: _261  and  _262
REMARK  104  A    between atoms: _261  and  _264
REMARK  105  A    between atoms: _264  and  _265
REMARK  106  A    between atoms: _265  and  _266
REMARK  107  A    between atoms: _266  and  _267
REMARK  108  A    between atoms: _267  and  _268
REMARK  109  A    between atoms: _272  and  _274
REMARK  110  A    between atoms: _274  and  _275
REMARK  111  A    between atoms: _274  and  _277
REMARK  112  A    between atoms: _277  and  _278
REMARK  113  A    between atoms: _281  and  _283
REMARK  114  A    between atoms: _283  and  _284
REMARK  115  A    between atoms: _283  and  _286
REMARK  116  A    between atoms: _286  and  _287
REMARK  117  A    between atoms: _287  and  _288
REMARK  118  A    between atoms: _293  and  _295
REMARK  119  A    between atoms: _295  and  _296
REMARK  120  A    between atoms: _295  and  _298
REMARK  121  A    between atoms: _298  and  _299
REMARK  122  A    between atoms: _304  and  _305
REMARK  123  A    between atoms: _307  and  _309
REMARK  124  A    between atoms: _309  and  _310
REMARK  125  A    between atoms: _309  and  _312
REMARK  126  A    between atoms: _312  and  _313
REMARK  127  A    between atoms: _316  and  _318
REMARK  128  A    between atoms: _318  and  _319
REMARK  129  A    between atoms: _318  and  _321
REMARK  130  A    between atoms: _323  and  _325
REMARK  131  A    between atoms: _325  and  _326
REMARK  132  A    between atoms: _329  and  _331
REMARK  133  A    between atoms: _331  and  _332
REMARK  134  A    between atoms: _331  and  _334
REMARK  135  A    between atoms: _334  and  _335
REMARK  136  A    between atoms: _335  and  _336
REMARK  137  A    between atoms: _336  and  _337
REMARK  138  A    between atoms: _337  and  _338
REMARK  139  A    between atoms: _342  and  _344
REMARK  140  A    between atoms: _344  and  _345
REMARK  141  A    between atoms: _344  and  _347
REMARK  142  A    between atoms: _347  and  _348
REMARK  143  A    between atoms: _351  and  _353
REMARK  144  A    between atoms: _353  and  _354
REMARK  145  A    between atoms: _357  and  _359
REMARK  146  A    between atoms: _359  and  _360
REMARK  147  A    between atoms: _359  and  _362
REMARK  148  A    between atoms: _362  and  _363
REMARK  149  A    between atoms: _363  and  _486
REMARK  150  A    between atoms: _364  and  _366
REMARK  151  A    between atoms: _366  and  _367
REMARK  152  A    between atoms: _366  and  _369
REMARK  153  A    between atoms: _369  and  _370
REMARK  154  A    between atoms: _370  and  _371
REMARK  155  A    between atoms: _371  and  _372
REMARK  156  A    between atoms: _372  and  _373
REMARK  157  A    between atoms: _377  and  _379
REMARK  158  A    between atoms: _379  and  _380
REMARK  159  A    between atoms: _382  and  _384
REMARK  160  A    between atoms: _384  and  _385
REMARK  161  A    between atoms: _384  and  _387
REMARK  162  A    between atoms: _387  and  _388
REMARK  163  A    between atoms: _391  and  _393
REMARK  164  A    between atoms: _393  and  _394
REMARK  165  A    between atoms: _393  and  _396
REMARK  166  A    between atoms: _396  and  _397
REMARK  167  A    between atoms: _399  and  _401
REMARK  168  A    between atoms: _401  and  _402
REMARK  169  A    between atoms: _404  and  _406
REMARK  170  A    between atoms: _406  and  _407
REMARK  171  A    between atoms: _409  and  _411
REMARK  172  A    between atoms: _411  and  _412
REMARK  173  A    between atoms: _411  and  _414
REMARK  174  A    between atoms: _414  and  _415
REMARK  175  A    between atoms: _418  and  _420
REMARK  176  A    between atoms: _420  and  _421
REMARK  177  A    between atoms: _420  and  _423
REMARK  178  A    between atoms: _423  and  _424
REMARK  179  A    between atoms: _427  and  _429
REMARK  180  A    between atoms: _429  and  _430
REMARK  181  A    between atoms: _429  and  _432
REMARK  182  A    between atoms: _432  and  _433
REMARK  183  A    between atoms: _436  and  _438
REMARK  184  A    between atoms: _438  and  _439
REMARK  185  A    between atoms: _438  and  _441
REMARK  186  A    between atoms: _441  and  _442
REMARK  187  A    between atoms: _444  and  _446
REMARK  188  A    between atoms: _446  and  _447
REMARK  189  A    between atoms: _446  and  _449
REMARK  190  A    between atoms: _449  and  _450
REMARK  191  A    between atoms: _460  and  _462
REMARK  192  A    between atoms: _462  and  _463
REMARK  193  A    between atoms: _465  and  _467
REMARK  194  A    between atoms: _467  and  _468
REMARK  195  A    between atoms: _467  and  _470
REMARK  196  A    between atoms: _470  and  _471
REMARK  197  A    between atoms: _471  and  _472
REMARK  198  A    between atoms: _475  and  _477
REMARK  199  A    between atoms: _477  and  _478
REMARK  200  A    between atoms: _480  and  _482
REMARK  201  A    between atoms: _482  and  _483
REMARK  202  A    between atoms: _482  and  _485
REMARK  203  A    between atoms: _485  and  _486
REMARK  204  A    between atoms: _487  and  _489
REMARK  205  A    between atoms: _489  and  _490
REMARK  206  A    between atoms: _493  and  _495
REMARK  207  A    between atoms: _495  and  _496
REMARK  208  A    between atoms: _495  and  _498
REMARK  209  A    between atoms: _498  and  _499
REMARK  210  A    between atoms: _499  and  _500
REMARK  211  A    between atoms: _505  and  _507
REMARK  212  A    between atoms: _507  and  _508
REMARK  213  A    between atoms: _507  and  _510
REMARK  214  A    between atoms: _510  and  _511
REMARK  215  A    between atoms: _511  and  _512
REMARK  216  A    between atoms: _512  and  _513
REMARK  217  A    between atoms: _523  and  _524
REMARK  218  A    between atoms: _529  and  _531
REMARK  219  A    between atoms: _531  and  _532
REMARK  220  A    between atoms: _534  and  _536
REMARK  221  A    between atoms: _536  and  _537
REMARK  222  A    between atoms: _536  and  _539
REMARK  223  A    between atoms: _542  and  _544
REMARK  224  A    between atoms: _544  and  _545
REMARK  225  A    between atoms: _544  and  _547
REMARK  226  A    between atoms: _547  and  _548
REMARK  227  A    between atoms: _553  and  _554
REMARK  228  A    between atoms: _556  and  _558
REMARK  229  A    between atoms: _558  and  _559
REMARK  230  A    between atoms: _558  and  _561
REMARK  231  A    between atoms: _561  and  _562
REMARK                            x       y       z     vdW  Elec       q    Type
REMARK                         _______ _______ _______ _____ _____    ______ ____
ROOT
ATOM      1  O   HOH     1      39.959 -11.719  19.057  0.00  0.00    +0.000 OA
ENDROOT
TORSDOF 0
REMARK  Name = ../refined-set-2016/4x6m/4x6m_pocket.pdb
REMARK  231 active torsions:
REMARK  status: ('A' for Active; 'I' for Inactive)
REMARK    1  A    between atoms: _1  and  _5
REMARK    2  A    between atoms: _5  and  _6
REMARK    3  A    between atoms: _5  and  _8
REMARK    4  A    between atoms: _8  and  _9
REMARK    5  A    between atoms: _12  and  _14
REMARK    6  A    between atoms: _14  and  _15
REMARK    7  A    between atoms: _14  and  _17
REMARK    8  A    between atoms: _20  and  _22
REMARK    9  A    between atoms: _22  and  _23
REMARK   10  A    between atoms: _22  and  _25
REMARK   11  A    between atoms: _25  and  _26
REMARK   12  A    between atoms: _29  and  _31
REMARK   13  A    between atoms: _31  and  _32
REMARK   14  A    between atoms: _31  and  _34
REMARK   15  A    between atoms: _34  and  _35
REMARK   16  A    between atoms: _40  and  _42
REMARK   17  A    between atoms: _42  and  _43
REMARK   18  A    between atoms: _42  and  _45
REMARK   19  A    between atoms: _45  and  _46
REMARK   20  A    between atoms: _49  and  _51
REMARK   21  A    between atoms: _51  and  _52
REMARK   22  A    between atoms: _51  and  _54
REMARK   23  A    between atoms: _54  and  _55
REMARK   24  A    between atoms: _58  and  _60
REMARK   25  A    between atoms: _60  and  _61
REMARK   26  A    between atoms: _60  and  _63
REMARK   27  A    between atoms: _63  and  _64
REMARK   28  A    between atoms: _64  and  _65
REMARK   29  A    between atoms: _70  and  _72
REMARK   30  A    between atoms: _72  and  _73
REMARK   31  A    between atoms: _72  and  _75
REMARK   32  A    between atoms: _75  and  _76
REMARK   33  A    between atoms: _76  and  _77
REMARK   34  A    between atoms: _77  and  _78
REMARK   35  A    between atoms: _87  and  _89
REMARK   36  A    between atoms: _89  and  _90
REMARK   37  A    between atoms: _89  and  _92
REMARK   38  A    between atoms: _92  and  _93
REMARK   39  A    between atoms: _98  and  _100
REMARK   40  A    between atoms: _100  and  _101
REMARK   41  A    between atoms: _100  and  _103
REMARK   42  A    between atoms: _103  and  _104
REMARK   43  A    between atoms: _107  and  _109
REMARK   44  A    between atoms: _109  and  _110
REMARK   45  A    between atoms: _109  and  _112
REMARK   46  A    between atoms: _112  and  _113
REMARK   47  A    between atoms: _113  and  _148
REMARK   48  A    between atoms: _114  and  _116
REMARK   49  A    between atoms: _116  and  _117
REMARK   50  A    between atoms: _119  and  _121
REMARK   51  A    between atoms: _121  and  _122
REMARK   52  A    between atoms: _125  and  _127
REMARK   53  A    between atoms: _127  and  _128
REMARK   54  A    between atoms: _131  and  _133
REMARK   55  A    between atoms: _133  and  _134
REMARK   56  A    between atoms: _133  and  _136
REMARK   57  A    between atoms: _136  and  _137
REMARK   58  A    between atoms: _142  and  _144
REMARK   59  A    between atoms: _144  and  _145
REMARK   60  A    between atoms: _144  and  _147
REMARK   61  A    between atoms: _147  and  _148
REMARK   62  A    between atoms: _149  and  _151
REMARK   63  A    between atoms: _151  and  _152
REMARK   64  A    between atoms: _151  and  _154
REMARK   65  A    between atoms: _154  and  _155
REMARK   66  A    between atoms: _161  and  _163
REMARK   67  A    between atoms: _163  and  _164
REMARK   68  A    between atoms: _163  and  _166
REMARK   69  A    between atoms: _166  and  _167
REMARK   70  A    between atoms: _172  and  _173
REMARK   71  A    between atoms: _175  and  _177
REMARK   72  A    between atoms: _177  and  _178
REMARK   73  A    between atoms: _177  and  _180
REMARK   74  A    between atoms: _183  and  _185
REMARK   75  A    between atoms: _185  and  _186
REMARK   76  A    between atoms: _189  and  _191
REMARK   77  A    between atoms: _191  and  _192
REMARK   78  A    between atoms: _191  and  _194
REMARK   79  A    between atoms: _194  and  _195
REMARK   80  A    between atoms: _198  and  _200
REMARK   81  A    between atoms: _200  and  _201
REMARK   82  A    between atoms: _200  and  _203
REMARK   83  A    between atoms: _206  and  _208
REMARK   84  A    between atoms: _208  and  _209
REMARK   85  A    between atoms: _208  and  _211
REMARK   86  A    between atoms: _211  and  _212
REMARK   87  A    between atoms: _222  and  _224
REMARK   88  A    between atoms: _224  and  _225
REMARK   89  A    between atoms: _227  and  _229
REMARK   90  A    between atoms: _229  and  _230
REMARK   91  A    between atoms: _229  and  _232
REMARK   92  A    between atoms: _232  and  _233
REMARK   93  A    between atoms: _238  and  _239
REMARK   94  A    between atoms: _241  and  _243
REMARK   95  A    between atoms: _243  and  _244
REMARK   96  A    between atoms: _243  and  _246
REMARK   97  A    between atoms: _246  and  _247
REMARK   98  A    between atoms: _250  and  _252
REMARK   99  A    between atoms: _252  and  _253
REMARK  100  A    between atoms: _252  and  _255
REMARK  101  A    between atoms: _255  and  _256
REMARK  102  A    between atoms: _259  and  _261
REMARK  103  A    between atoms: _261  and  _262
REMARK  104  A    between atoms: _261  and  _264
REMARK  105  A    between atoms: _264  and  _265
REMARK  106  A    between atoms: _265  and  _266
REMARK  107  A    between atoms: _266  and  _267
REMARK  108  A    between atoms: _267  and  _268
REMARK  109  A    between atoms: _272  and  _274
REMARK  110  A    between atoms: _274  and  _275
REMARK  111  A    between atoms: _274  and  _277
REMARK  112  A    between atoms: _277  and  _278
REMARK  113  A    between atoms: _281  and  _283
REMARK  114  A    between atoms: _283  and  _284
REMARK  115  A    between atoms: _283  and  _286
REMARK  116  A    between atoms: _286  and  _287
REMARK  117  A    between atoms: _287  and  _288
REMARK  118  A    between atoms: _293  and  _295
REMARK  119  A    between atoms: _295  and  _296
REMARK  120  A    between atoms: _295  and  _298
REMARK  121  A    between atoms: _298  and  _299
REMARK  122  A    between atoms: _304  and  _305
REMARK  123  A    between atoms: _307  and  _309
REMARK  124  A    between atoms: _309  and  _310
REMARK  125  A    between atoms: _309  and  _312
REMARK  126  A    between atoms: _312  and  _313
REMARK  127  A    between atoms: _316  and  _318
REMARK  128  A    between atoms: _318  and  _319
REMARK  129  A    between atoms: _318  and  _321
REMARK  130  A    between atoms: _323  and  _325
REMARK  131  A    between atoms: _325  and  _326
REMARK  132  A    between atoms: _329  and  _331
REMARK  133  A    between atoms: _331  and  _332
REMARK  134  A    between atoms: _331  and  _334
REMARK  135  A    between atoms: _334  and  _335
REMARK  136  A    between atoms: _335  and  _336
REMARK  137  A    between atoms: _336  and  _337
REMARK  138  A    between atoms: _337  and  _338
REMARK  139  A    between atoms: _342  and  _344
REMARK  140  A    between atoms: _344  and  _345
REMARK  141  A    between atoms: _344  and  _347
REMARK  142  A    between atoms: _347  and  _348
REMARK  143  A    between atoms: _351  and  _353
REMARK  144  A    between atoms: _353  and  _354
REMARK  145  A    between atoms: _357  and  _359
REMARK  146  A    between atoms: _359  and  _360
REMARK  147  A    between atoms: _359  and  _362
REMARK  148  A    between atoms: _362  and  _363
REMARK  149  A    between atoms: _363  and  _486
REMARK  150  A    between atoms: _364  and  _366
REMARK  151  A    between atoms: _366  and  _367
REMARK  152  A    between atoms: _366  and  _369
REMARK  153  A    between atoms: _369  and  _370
REMARK  154  A    between atoms: _370  and  _371
REMARK  155  A    between atoms: _371  and  _372
REMARK  156  A    between atoms: _372  and  _373
REMARK  157  A    between atoms: _377  and  _379
REMARK  158  A    between atoms: _379  and  _380
REMARK  159  A    between atoms: _382  and  _384
REMARK  160  A    between atoms: _384  and  _385
REMARK  161  A    between atoms: _384  and  _387
REMARK  162  A    between atoms: _387  and  _388
REMARK  163  A    between atoms: _391  and  _393
REMARK  164  A    between atoms: _393  and  _394
REMARK  165  A    between atoms: _393  and  _396
REMARK  166  A    between atoms: _396  and  _397
REMARK  167  A    between atoms: _399  and  _401
REMARK  168  A    between atoms: _401  and  _402
REMARK  169  A    between atoms: _404  and  _406
REMARK  170  A    between atoms: _406  and  _407
REMARK  171  A    between atoms: _409  and  _411
REMARK  172  A    between atoms: _411  and  _412
REMARK  173  A    between atoms: _411  and  _414
REMARK  174  A    between atoms: _414  and  _415
REMARK  175  A    between atoms: _418  and  _420
REMARK  176  A    between atoms: _420  and  _421
REMARK  177  A    between atoms: _420  and  _423
REMARK  178  A    between atoms: _423  and  _424
REMARK  179  A    between atoms: _427  and  _429
REMARK  180  A    between atoms: _429  and  _430
REMARK  181  A    between atoms: _429  and  _432
REMARK  182  A    between atoms: _432  and  _433
REMARK  183  A    between atoms: _436  and  _438
REMARK  184  A    between atoms: _438  and  _439
REMARK  185  A    between atoms: _438  and  _441
REMARK  186  A    between atoms: _441  and  _442
REMARK  187  A    between atoms: _444  and  _446
REMARK  188  A    between atoms: _446  and  _447
REMARK  189  A    between atoms: _446  and  _449
REMARK  190  A    between atoms: _449  and  _450
REMARK  191  A    between atoms: _460  and  _462
REMARK  192  A    between atoms: _462  and  _463
REMARK  193  A    between atoms: _465  and  _467
REMARK  194  A    between atoms: _467  and  _468
REMARK  195  A    between atoms: _467  and  _470
REMARK  196  A    between atoms: _470  and  _471
REMARK  197  A    between atoms: _471  and  _472
REMARK  198  A    between atoms: _475  and  _477
REMARK  199  A    between atoms: _477  and  _478
REMARK  200  A    between atoms: _480  and  _482
REMARK  201  A    between atoms: _482  and  _483
REMARK  202  A    between atoms: _482  and  _485
REMARK  203  A    between atoms: _485  and  _486
REMARK  204  A    between atoms: _487  and  _489
REMARK  205  A    between atoms: _489  and  _490
REMARK  206  A    between atoms: _493  and  _495
REMARK  207  A    between atoms: _495  and  _496
REMARK  208  A    between atoms: _495  and  _498
REMARK  209  A    between atoms: _498  and  _499
REMARK  210  A    between atoms: _499  and  _500
REMARK  211  A    between atoms: _505  and  _507
REMARK  212  A    between atoms: _507  and  _508
REMARK  213  A    between atoms: _507  and  _510
REMARK  214  A    between atoms: _510  and  _511
REMARK  215  A    between atoms: _511  and  _512
REMARK  216  A    between atoms: _512  and  _513
REMARK  217  A    between atoms: _523  and  _524
REMARK  218  A    between atoms: _529  and  _531
REMARK  219  A    between atoms: _531  and  _532
REMARK  220  A    between atoms: _534  and  _536
REMARK  221  A    between atoms: _536  and  _537
REMARK  222  A    between atoms: _536  and  _539
REMARK  223  A    between atoms: _542  and  _544
REMARK  224  A    between atoms: _544  and  _545
REMARK  225  A    between atoms: _544  and  _547
REMARK  226  A    between atoms: _547  and  _548
REMARK  227  A    between atoms: _553  and  _554
REMARK  228  A    between atoms: _556  and  _558
REMARK  229  A    between atoms: _558  and  _559
REMARK  230  A    between atoms: _558  and  _561
REMARK  231  A    between atoms: _561  and  _562
REMARK                            x       y       z     vdW  Elec       q    Type
REMARK                         _______ _______ _______ _____ _____    ______ ____
ROOT
ATOM      1  O   HOH     1      37.885 -16.680  17.581  0.00  0.00    +0.000 OA
ENDROOT
TORSDOF 0
REMARK  Name = ../refined-set-2016/4x6m/4x6m_pocket.pdb
REMARK  231 active torsions:
REMARK  status: ('A' for Active; 'I' for Inactive)
REMARK    1  A    between atoms: _1  and  _5
REMARK    2  A    between atoms: _5  and  _6
REMARK    3  A    between atoms: _5  and  _8
REMARK    4  A    between atoms: _8  and  _9
REMARK    5  A    between atoms: _12  and  _14
REMARK    6  A    between atoms: _14  and  _15
REMARK    7  A    between atoms: _14  and  _17
REMARK    8  A    between atoms: _20  and  _22
REMARK    9  A    between atoms: _22  and  _23
REMARK   10  A    between atoms: _22  and  _25
REMARK   11  A    between atoms: _25  and  _26
REMARK   12  A    between atoms: _29  and  _31
REMARK   13  A    between atoms: _31  and  _32
REMARK   14  A    between atoms: _31  and  _34
REMARK   15  A    between atoms: _34  and  _35
REMARK   16  A    between atoms: _40  and  _42
REMARK   17  A    between atoms: _42  and  _43
REMARK   18  A    between atoms: _42  and  _45
REMARK   19  A    between atoms: _45  and  _46
REMARK   20  A    between atoms: _49  and  _51
REMARK   21  A    between atoms: _51  and  _52
REMARK   22  A    between atoms: _51  and  _54
REMARK   23  A    between atoms: _54  and  _55
REMARK   24  A    between atoms: _58  and  _60
REMARK   25  A    between atoms: _60  and  _61
REMARK   26  A    between atoms: _60  and  _63
REMARK   27  A    between atoms: _63  and  _64
REMARK   28  A    between atoms: _64  and  _65
REMARK   29  A    between atoms: _70  and  _72
REMARK   30  A    between atoms: _72  and  _73
REMARK   31  A    between atoms: _72  and  _75
REMARK   32  A    between atoms: _75  and  _76
REMARK   33  A    between atoms: _76  and  _77
REMARK   34  A    between atoms: _77  and  _78
REMARK   35  A    between atoms: _87  and  _89
REMARK   36  A    between atoms: _89  and  _90
REMARK   37  A    between atoms: _89  and  _92
REMARK   38  A    between atoms: _92  and  _93
REMARK   39  A    between atoms: _98  and  _100
REMARK   40  A    between atoms: _100  and  _101
REMARK   41  A    between atoms: _100  and  _103
REMARK   42  A    between atoms: _103  and  _104
REMARK   43  A    between atoms: _107  and  _109
REMARK   44  A    between atoms: _109  and  _110
REMARK   45  A    between atoms: _109  and  _112
REMARK   46  A    between atoms: _112  and  _113
REMARK   47  A    between atoms: _113  and  _148
REMARK   48  A    between atoms: _114  and  _116
REMARK   49  A    between atoms: _116  and  _117
REMARK   50  A    between atoms: _119  and  _121
REMARK   51  A    between atoms: _121  and  _122
REMARK   52  A    between atoms: _125  and  _127
REMARK   53  A    between atoms: _127  and  _128
REMARK   54  A    between atoms: _131  and  _133
REMARK   55  A    between atoms: _133  and  _134
REMARK   56  A    between atoms: _133  and  _136
REMARK   57  A    between atoms: _136  and  _137
REMARK   58  A    between atoms: _142  and  _144
REMARK   59  A    between atoms: _144  and  _145
REMARK   60  A    between atoms: _144  and  _147
REMARK   61  A    between atoms: _147  and  _148
REMARK   62  A    between atoms: _149  and  _151
REMARK   63  A    between atoms: _151  and  _152
REMARK   64  A    between atoms: _151  and  _154
REMARK   65  A    between atoms: _154  and  _155
REMARK   66  A    between atoms: _161  and  _163
REMARK   67  A    between atoms: _163  and  _164
REMARK   68  A    between atoms: _163  and  _166
REMARK   69  A    between atoms: _166  and  _167
REMARK   70  A    between atoms: _172  and  _173
REMARK   71  A    between atoms: _175  and  _177
REMARK   72  A    between atoms: _177  and  _178
REMARK   73  A    between atoms: _177  and  _180
REMARK   74  A    between atoms: _183  and  _185
REMARK   75  A    between atoms: _185  and  _186
REMARK   76  A    between atoms: _189  and  _191
REMARK   77  A    between atoms: _191  and  _192
REMARK   78  A    between atoms: _191  and  _194
REMARK   79  A    between atoms: _194  and  _195
REMARK   80  A    between atoms: _198  and  _200
REMARK   81  A    between atoms: _200  and  _201
REMARK   82  A    between atoms: _200  and  _203
REMARK   83  A    between atoms: _206  and  _208
REMARK   84  A    between atoms: _208  and  _209
REMARK   85  A    between atoms: _208  and  _211
REMARK   86  A    between atoms: _211  and  _212
REMARK   87  A    between atoms: _222  and  _224
REMARK   88  A    between atoms: _224  and  _225
REMARK   89  A    between atoms: _227  and  _229
REMARK   90  A    between atoms: _229  and  _230
REMARK   91  A    between atoms: _229  and  _232
REMARK   92  A    between atoms: _232  and  _233
REMARK   93  A    between atoms: _238  and  _239
REMARK   94  A    between atoms: _241  and  _243
REMARK   95  A    between atoms: _243  and  _244
REMARK   96  A    between atoms: _243  and  _246
REMARK   97  A    between atoms: _246  and  _247
REMARK   98  A    between atoms: _250  and  _252
REMARK   99  A    between atoms: _252  and  _253
REMARK  100  A    between atoms: _252  and  _255
REMARK  101  A    between atoms: _255  and  _256
REMARK  102  A    between atoms: _259  and  _261
REMARK  103  A    between atoms: _261  and  _262
REMARK  104  A    between atoms: _261  and  _264
REMARK  105  A    between atoms: _264  and  _265
REMARK  106  A    between atoms: _265  and  _266
REMARK  107  A    between atoms: _266  and  _267
REMARK  108  A    between atoms: _267  and  _268
REMARK  109  A    between atoms: _272  and  _274
REMARK  110  A    between atoms: _274  and  _275
REMARK  111  A    between atoms: _274  and  _277
REMARK  112  A    between atoms: _277  and  _278
REMARK  113  A    between atoms: _281  and  _283
REMARK  114  A    between atoms: _283  and  _284
REMARK  115  A    between atoms: _283  and  _286
REMARK  116  A    between atoms: _286  and  _287
REMARK  117  A    between atoms: _287  and  _288
REMARK  118  A    between atoms: _293  and  _295
REMARK  119  A    between atoms: _295  and  _296
REMARK  120  A    between atoms: _295  and  _298
REMARK  121  A    between atoms: _298  and  _299
REMARK  122  A    between atoms: _304  and  _305
REMARK  123  A    between atoms: _307  and  _309
REMARK  124  A    between atoms: _309  and  _310
REMARK  125  A    between atoms: _309  and  _312
REMARK  126  A    between atoms: _312  and  _313
REMARK  127  A    between atoms: _316  and  _318
REMARK  128  A    between atoms: _318  and  _319
REMARK  129  A    between atoms: _318  and  _321
REMARK  130  A    between atoms: _323  and  _325
REMARK  131  A    between atoms: _325  and  _326
REMARK  132  A    between atoms: _329  and  _331
REMARK  133  A    between atoms: _331  and  _332
REMARK  134  A    between atoms: _331  and  _334
REMARK  135  A    between atoms: _334  and  _335
REMARK  136  A    between atoms: _335  and  _336
REMARK  137  A    between atoms: _336  and  _337
REMARK  138  A    between atoms: _337  and  _338
REMARK  139  A    between atoms: _342  and  _344
REMARK  140  A    between atoms: _344  and  _345
REMARK  141  A    between atoms: _344  and  _347
REMARK  142  A    between atoms: _347  and  _348
REMARK  143  A    between atoms: _351  and  _353
REMARK  144  A    between atoms: _353  and  _354
REMARK  145  A    between atoms: _357  and  _359
REMARK  146  A    between atoms: _359  and  _360
REMARK  147  A    between atoms: _359  and  _362
REMARK  148  A    between atoms: _362  and  _363
REMARK  149  A    between atoms: _363  and  _486
REMARK  150  A    between atoms: _364  and  _366
REMARK  151  A    between atoms: _366  and  _367
REMARK  152  A    between atoms: _366  and  _369
REMARK  153  A    between atoms: _369  and  _370
REMARK  154  A    between atoms: _370  and  _371
REMARK  155  A    between atoms: _371  and  _372
REMARK  156  A    between atoms: _372  and  _373
REMARK  157  A    between atoms: _377  and  _379
REMARK  158  A    between atoms: _379  and  _380
REMARK  159  A    between atoms: _382  and  _384
REMARK  160  A    between atoms: _384  and  _385
REMARK  161  A    between atoms: _384  and  _387
REMARK  162  A    between atoms: _387  and  _388
REMARK  163  A    between atoms: _391  and  _393
REMARK  164  A    between atoms: _393  and  _394
REMARK  165  A    between atoms: _393  and  _396
REMARK  166  A    between atoms: _396  and  _397
REMARK  167  A    between atoms: _399  and  _401
REMARK  168  A    between atoms: _401  and  _402
REMARK  169  A    between atoms: _404  and  _406
REMARK  170  A    between atoms: _406  and  _407
REMARK  171  A    between atoms: _409  and  _411
REMARK  172  A    between atoms: _411  and  _412
REMARK  173  A    between atoms: _411  and  _414
REMARK  174  A    between atoms: _414  and  _415
REMARK  175  A    between atoms: _418  and  _420
REMARK  176  A    between atoms: _420  and  _421
REMARK  177  A    between atoms: _420  and  _423
REMARK  178  A    between atoms: _423  and  _424
REMARK  179  A    between atoms: _427  and  _429
REMARK  180  A    between atoms: _429  and  _430
REMARK  181  A    between atoms: _429  and  _432
REMARK  182  A    between atoms: _432  and  _433
REMARK  183  A    between atoms: _436  and  _438
REMARK  184  A    between atoms: _438  and  _439
REMARK  185  A    between atoms: _438  and  _441
REMARK  186  A    between atoms: _441  and  _442
REMARK  187  A    between atoms: _444  and  _446
REMARK  188  A    between atoms: _446  and  _447
REMARK  189  A    between atoms: _446  and  _449
REMARK  190  A    between atoms: _449  and  _450
REMARK  191  A    between atoms: _460  and  _462
REMARK  192  A    between atoms: _462  and  _463
REMARK  193  A    between atoms: _465  and  _467
REMARK  194  A    between atoms: _467  and  _468
REMARK  195  A    between atoms: _467  and  _470
REMARK  196  A    between atoms: _470  and  _471
REMARK  197  A    between atoms: _471  and  _472
REMARK  198  A    between atoms: _475  and  _477
REMARK  199  A    between atoms: _477  and  _478
REMARK  200  A    between atoms: _480  and  _482
REMARK  201  A    between atoms: _482  and  _483
REMARK  202  A    between atoms: _482  and  _485
REMARK  203  A    between atoms: _485  and  _486
REMARK  204  A    between atoms: _487  and  _489
REMARK  205  A    between atoms: _489  and  _490
REMARK  206  A    between atoms: _493  and  _495
REMARK  207  A    between atoms: _495  and  _496
REMARK  208  A    between atoms: _495  and  _498
REMARK  209  A    between atoms: _498  and  _499
REMARK  210  A    between atoms: _499  and  _500
REMARK  211  A    between atoms: _505  and  _507
REMARK  212  A    between atoms: _507  and  _508
REMARK  213  A    between atoms: _507  and  _510
REMARK  214  A    between atoms: _510  and  _511
REMARK  215  A    between atoms: _511  and  _512
REMARK  216  A    between atoms: _512  and  _513
REMARK  217  A    between atoms: _523  and  _524
REMARK  218  A    between atoms: _529  and  _531
REMARK  219  A    between atoms: _531  and  _532
REMARK  220  A    between atoms: _534  and  _536
REMARK  221  A    between atoms: _536  and  _537
REMARK  222  A    between atoms: _536  and  _539
REMARK  223  A    between atoms: _542  and  _544
REMARK  224  A    between atoms: _544  and  _545
REMARK  225  A    between atoms: _544  and  _547
REMARK  226  A    between atoms: _547  and  _548
REMARK  227  A    between atoms: _553  and  _554
REMARK  228  A    between atoms: _556  and  _558
REMARK  229  A    between atoms: _558  and  _559
REMARK  230  A    between atoms: _558  and  _561
REMARK  231  A    between atoms: _561  and  _562
REMARK                            x       y       z     vdW  Elec       q    Type
REMARK                         _______ _______ _______ _____ _____    ______ ____
ROOT
ATOM      1  O   HOH     1      37.739 -26.098  26.386  0.00  0.00    +0.000 OA
ENDROOT
TORSDOF 0
REMARK  Name = ../refined-set-2016/4x6m/4x6m_pocket.pdb
REMARK  231 active torsions:
REMARK  status: ('A' for Active; 'I' for Inactive)
REMARK    1  A    between atoms: _1  and  _5
REMARK    2  A    between atoms: _5  and  _6
REMARK    3  A    between atoms: _5  and  _8
REMARK    4  A    between atoms: _8  and  _9
REMARK    5  A    between atoms: _12  and  _14
REMARK    6  A    between atoms: _14  and  _15
REMARK    7  A    between atoms: _14  and  _17
REMARK    8  A    between atoms: _20  and  _22
REMARK    9  A    between atoms: _22  and  _23
REMARK   10  A    between atoms: _22  and  _25
REMARK   11  A    between atoms: _25  and  _26
REMARK   12  A    between atoms: _29  and  _31
REMARK   13  A    between atoms: _31  and  _32
REMARK   14  A    between atoms: _31  and  _34
REMARK   15  A    between atoms: _34  and  _35
REMARK   16  A    between atoms: _40  and  _42
REMARK   17  A    between atoms: _42  and  _43
REMARK   18  A    between atoms: _42  and  _45
REMARK   19  A    between atoms: _45  and  _46
REMARK   20  A    between atoms: _49  and  _51
REMARK   21  A    between atoms: _51  and  _52
REMARK   22  A    between atoms: _51  and  _54
REMARK   23  A    between atoms: _54  and  _55
REMARK   24  A    between atoms: _58  and  _60
REMARK   25  A    between atoms: _60  and  _61
REMARK   26  A    between atoms: _60  and  _63
REMARK   27  A    between atoms: _63  and  _64
REMARK   28  A    between atoms: _64  and  _65
REMARK   29  A    between atoms: _70  and  _72
REMARK   30  A    between atoms: _72  and  _73
REMARK   31  A    between atoms: _72  and  _75
REMARK   32  A    between atoms: _75  and  _76
REMARK   33  A    between atoms: _76  and  _77
REMARK   34  A    between atoms: _77  and  _78
REMARK   35  A    between atoms: _87  and  _89
REMARK   36  A    between atoms: _89  and  _90
REMARK   37  A    between atoms: _89  and  _92
REMARK   38  A    between atoms: _92  and  _93
REMARK   39  A    between atoms: _98  and  _100
REMARK   40  A    between atoms: _100  and  _101
REMARK   41  A    between atoms: _100  and  _103
REMARK   42  A    between atoms: _103  and  _104
REMARK   43  A    between atoms: _107  and  _109
REMARK   44  A    between atoms: _109  and  _110
REMARK   45  A    between atoms: _109  and  _112
REMARK   46  A    between atoms: _112  and  _113
REMARK   47  A    between atoms: _113  and  _148
REMARK   48  A    between atoms: _114  and  _116
REMARK   49  A    between atoms: _116  and  _117
REMARK   50  A    between atoms: _119  and  _121
REMARK   51  A    between atoms: _121  and  _122
REMARK   52  A    between atoms: _125  and  _127
REMARK   53  A    between atoms: _127  and  _128
REMARK   54  A    between atoms: _131  and  _133
REMARK   55  A    between atoms: _133  and  _134
REMARK   56  A    between atoms: _133  and  _136
REMARK   57  A    between atoms: _136  and  _137
REMARK   58  A    between atoms: _142  and  _144
REMARK   59  A    between atoms: _144  and  _145
REMARK   60  A    between atoms: _144  and  _147
REMARK   61  A    between atoms: _147  and  _148
REMARK   62  A    between atoms: _149  and  _151
REMARK   63  A    between atoms: _151  and  _152
REMARK   64  A    between atoms: _151  and  _154
REMARK   65  A    between atoms: _154  and  _155
REMARK   66  A    between atoms: _161  and  _163
REMARK   67  A    between atoms: _163  and  _164
REMARK   68  A    between atoms: _163  and  _166
REMARK   69  A    between atoms: _166  and  _167
REMARK   70  A    between atoms: _172  and  _173
REMARK   71  A    between atoms: _175  and  _177
REMARK   72  A    between atoms: _177  and  _178
REMARK   73  A    between atoms: _177  and  _180
REMARK   74  A    between atoms: _183  and  _185
REMARK   75  A    between atoms: _185  and  _186
REMARK   76  A    between atoms: _189  and  _191
REMARK   77  A    between atoms: _191  and  _192
REMARK   78  A    between atoms: _191  and  _194
REMARK   79  A    between atoms: _194  and  _195
REMARK   80  A    between atoms: _198  and  _200
REMARK   81  A    between atoms: _200  and  _201
REMARK   82  A    between atoms: _200  and  _203
REMARK   83  A    between atoms: _206  and  _208
REMARK   84  A    between atoms: _208  and  _209
REMARK   85  A    between atoms: _208  and  _211
REMARK   86  A    between atoms: _211  and  _212
REMARK   87  A    between atoms: _222  and  _224
REMARK   88  A    between atoms: _224  and  _225
REMARK   89  A    between atoms: _227  and  _229
REMARK   90  A    between atoms: _229  and  _230
REMARK   91  A    between atoms: _229  and  _232
REMARK   92  A    between atoms: _232  and  _233
REMARK   93  A    between atoms: _238  and  _239
REMARK   94  A    between atoms: _241  and  _243
REMARK   95  A    between atoms: _243  and  _244
REMARK   96  A    between atoms: _243  and  _246
REMARK   97  A    between atoms: _246  and  _247
REMARK   98  A    between atoms: _250  and  _252
REMARK   99  A    between atoms: _252  and  _253
REMARK  100  A    between atoms: _252  and  _255
REMARK  101  A    between atoms: _255  and  _256
REMARK  102  A    between atoms: _259  and  _261
REMARK  103  A    between atoms: _261  and  _262
REMARK  104  A    between atoms: _261  and  _264
REMARK  105  A    between atoms: _264  and  _265
REMARK  106  A    between atoms: _265  and  _266
REMARK  107  A    between atoms: _266  and  _267
REMARK  108  A    between atoms: _267  and  _268
REMARK  109  A    between atoms: _272  and  _274
REMARK  110  A    between atoms: _274  and  _275
REMARK  111  A    between atoms: _274  and  _277
REMARK  112  A    between atoms: _277  and  _278
REMARK  113  A    between atoms: _281  and  _283
REMARK  114  A    between atoms: _283  and  _284
REMARK  115  A    between atoms: _283  and  _286
REMARK  116  A    between atoms: _286  and  _287
REMARK  117  A    between atoms: _287  and  _288
REMARK  118  A    between atoms: _293  and  _295
REMARK  119  A    between atoms: _295  and  _296
REMARK  120  A    between atoms: _295  and  _298
REMARK  121  A    between atoms: _298  and  _299
REMARK  122  A    between atoms: _304  and  _305
REMARK  123  A    between atoms: _307  and  _309
REMARK  124  A    between atoms: _309  and  _310
REMARK  125  A    between atoms: _309  and  _312
REMARK  126  A    between atoms: _312  and  _313
REMARK  127  A    between atoms: _316  and  _318
REMARK  128  A    between atoms: _318  and  _319
REMARK  129  A    between atoms: _318  and  _321
REMARK  130  A    between atoms: _323  and  _325
REMARK  131  A    between atoms: _325  and  _326
REMARK  132  A    between atoms: _329  and  _331
REMARK  133  A    between atoms: _331  and  _332
REMARK  134  A    between atoms: _331  and  _334
REMARK  135  A    between atoms: _334  and  _335
REMARK  136  A    between atoms: _335  and  _336
REMARK  137  A    between atoms: _336  and  _337
REMARK  138  A    between atoms: _337  and  _338
REMARK  139  A    between atoms: _342  and  _344
REMARK  140  A    between atoms: _344  and  _345
REMARK  141  A    between atoms: _344  and  _347
REMARK  142  A    between atoms: _347  and  _348
REMARK  143  A    between atoms: _351  and  _353
REMARK  144  A    between atoms: _353  and  _354
REMARK  145  A    between atoms: _357  and  _359
REMARK  146  A    between atoms: _359  and  _360
REMARK  147  A    between atoms: _359  and  _362
REMARK  148  A    between atoms: _362  and  _363
REMARK  149  A    between atoms: _363  and  _486
REMARK  150  A    between atoms: _364  and  _366
REMARK  151  A    between atoms: _366  and  _367
REMARK  152  A    between atoms: _366  and  _369
REMARK  153  A    between atoms: _369  and  _370
REMARK  154  A    between atoms: _370  and  _371
REMARK  155  A    between atoms: _371  and  _372
REMARK  156  A    between atoms: _372  and  _373
REMARK  157  A    between atoms: _377  and  _379
REMARK  158  A    between atoms: _379  and  _380
REMARK  159  A    between atoms: _382  and  _384
REMARK  160  A    between atoms: _384  and  _385
REMARK  161  A    between atoms: _384  and  _387
REMARK  162  A    between atoms: _387  and  _388
REMARK  163  A    between atoms: _391  and  _393
REMARK  164  A    between atoms: _393  and  _394
REMARK  165  A    between atoms: _393  and  _396
REMARK  166  A    between atoms: _396  and  _397
REMARK  167  A    between atoms: _399  and  _401
REMARK  168  A    between atoms: _401  and  _402
REMARK  169  A    between atoms: _404  and  _406
REMARK  170  A    between atoms: _406  and  _407
REMARK  171  A    between atoms: _409  and  _411
REMARK  172  A    between atoms: _411  and  _412
REMARK  173  A    between atoms: _411  and  _414
REMARK  174  A    between atoms: _414  and  _415
REMARK  175  A    between atoms: _418  and  _420
REMARK  176  A    between atoms: _420  and  _421
REMARK  177  A    between atoms: _420  and  _423
REMARK  178  A    between atoms: _423  and  _424
REMARK  179  A    between atoms: _427  and  _429
REMARK  180  A    between atoms: _429  and  _430
REMARK  181  A    between atoms: _429  and  _432
REMARK  182  A    between atoms: _432  and  _433
REMARK  183  A    between atoms: _436  and  _438
REMARK  184  A    between atoms: _438  and  _439
REMARK  185  A    between atoms: _438  and  _441
REMARK  186  A    between atoms: _441  and  _442
REMARK  187  A    between atoms: _444  and  _446
REMARK  188  A    between atoms: _446  and  _447
REMARK  189  A    between atoms: _446  and  _449
REMARK  190  A    between atoms: _449  and  _450
REMARK  191  A    between atoms: _460  and  _462
REMARK  192  A    between atoms: _462  and  _463
REMARK  193  A    between atoms: _465  and  _467
REMARK  194  A    between atoms: _467  and  _468
REMARK  195  A    between atoms: _467  and  _470
REMARK  196  A    between atoms: _470  and  _471
REMARK  197  A    between atoms: _471  and  _472
REMARK  198  A    between atoms: _475  and  _477
REMARK  199  A    between atoms: _477  and  _478
REMARK  200  A    between atoms: _480  and  _482
REMARK  201  A    between atoms: _482  and  _483
REMARK  202  A    between atoms: _482  and  _485
REMARK  203  A    between atoms: _485  and  _486
REMARK  204  A    between atoms: _487  and  _489
REMARK  205  A    between atoms: _489  and  _490
REMARK  206  A    between atoms: _493  and  _495
REMARK  207  A    between atoms: _495  and  _496
REMARK  208  A    between atoms: _495  and  _498
REMARK  209  A    between atoms: _498  and  _499
REMARK  210  A    between atoms: _499  and  _500
REMARK  211  A    between atoms: _505  and  _507
REMARK  212  A    between atoms: _507  and  _508
REMARK  213  A    between atoms: _507  and  _510
REMARK  214  A    between atoms: _510  and  _511
REMARK  215  A    between atoms: _511  and  _512
REMARK  216  A    between atoms: _512  and  _513
REMARK  217  A    between atoms: _523  and  _524
REMARK  218  A    between atoms: _529  and  _531
REMARK  219  A    between atoms: _531  and  _532
REMARK  220  A    between atoms: _534  and  _536
REMARK  221  A    between atoms: _536  and  _537
REMARK  222  A    between atoms: _536  and  _539
REMARK  223  A    between atoms: _542  and  _544
REMARK  224  A    between atoms: _544  and  _545
REMARK  225  A    between atoms: _544  and  _547
REMARK  226  A    between atoms: _547  and  _548
REMARK  227  A    between atoms: _553  and  _554
REMARK  228  A    between atoms: _556  and  _558
REMARK  229  A    between atoms: _558  and  _559
REMARK  230  A    between atoms: _558  and  _561
REMARK  231  A    between atoms: _561  and  _562
REMARK                            x       y       z     vdW  Elec       q    Type
REMARK                         _______ _______ _______ _____ _____    ______ ____
ROOT
ATOM      1  O   HOH     1      37.958 -19.612  25.812  0.00  0.00    +0.000 OA
ENDROOT
TORSDOF 0
REMARK  Name = ../refined-set-2016/4x6m/4x6m_pocket.pdb
REMARK  231 active torsions:
REMARK  status: ('A' for Active; 'I' for Inactive)
REMARK    1  A    between atoms: _1  and  _5
REMARK    2  A    between atoms: _5  and  _6
REMARK    3  A    between atoms: _5  and  _8
REMARK    4  A    between atoms: _8  and  _9
REMARK    5  A    between atoms: _12  and  _14
REMARK    6  A    between atoms: _14  and  _15
REMARK    7  A    between atoms: _14  and  _17
REMARK    8  A    between atoms: _20  and  _22
REMARK    9  A    between atoms: _22  and  _23
REMARK   10  A    between atoms: _22  and  _25
REMARK   11  A    between atoms: _25  and  _26
REMARK   12  A    between atoms: _29  and  _31
REMARK   13  A    between atoms: _31  and  _32
REMARK   14  A    between atoms: _31  and  _34
REMARK   15  A    between atoms: _34  and  _35
REMARK   16  A    between atoms: _40  and  _42
REMARK   17  A    between atoms: _42  and  _43
REMARK   18  A    between atoms: _42  and  _45
REMARK   19  A    between atoms: _45  and  _46
REMARK   20  A    between atoms: _49  and  _51
REMARK   21  A    between atoms: _51  and  _52
REMARK   22  A    between atoms: _51  and  _54
REMARK   23  A    between atoms: _54  and  _55
REMARK   24  A    between atoms: _58  and  _60
REMARK   25  A    between atoms: _60  and  _61
REMARK   26  A    between atoms: _60  and  _63
REMARK   27  A    between atoms: _63  and  _64
REMARK   28  A    between atoms: _64  and  _65
REMARK   29  A    between atoms: _70  and  _72
REMARK   30  A    between atoms: _72  and  _73
REMARK   31  A    between atoms: _72  and  _75
REMARK   32  A    between atoms: _75  and  _76
REMARK   33  A    between atoms: _76  and  _77
REMARK   34  A    between atoms: _77  and  _78
REMARK   35  A    between atoms: _87  and  _89
REMARK   36  A    between atoms: _89  and  _90
REMARK   37  A    between atoms: _89  and  _92
REMARK   38  A    between atoms: _92  and  _93
REMARK   39  A    between atoms: _98  and  _100
REMARK   40  A    between atoms: _100  and  _101
REMARK   41  A    between atoms: _100  and  _103
REMARK   42  A    between atoms: _103  and  _104
REMARK   43  A    between atoms: _107  and  _109
REMARK   44  A    between atoms: _109  and  _110
REMARK   45  A    between atoms: _109  and  _112
REMARK   46  A    between atoms: _112  and  _113
REMARK   47  A    between atoms: _113  and  _148
REMARK   48  A    between atoms: _114  and  _116
REMARK   49  A    between atoms: _116  and  _117
REMARK   50  A    between atoms: _119  and  _121
REMARK   51  A    between atoms: _121  and  _122
REMARK   52  A    between atoms: _125  and  _127
REMARK   53  A    between atoms: _127  and  _128
REMARK   54  A    between atoms: _131  and  _133
REMARK   55  A    between atoms: _133  and  _134
REMARK   56  A    between atoms: _133  and  _136
REMARK   57  A    between atoms: _136  and  _137
REMARK   58  A    between atoms: _142  and  _144
REMARK   59  A    between atoms: _144  and  _145
REMARK   60  A    between atoms: _144  and  _147
REMARK   61  A    between atoms: _147  and  _148
REMARK   62  A    between atoms: _149  and  _151
REMARK   63  A    between atoms: _151  and  _152
REMARK   64  A    between atoms: _151  and  _154
REMARK   65  A    between atoms: _154  and  _155
REMARK   66  A    between atoms: _161  and  _163
REMARK   67  A    between atoms: _163  and  _164
REMARK   68  A    between atoms: _163  and  _166
REMARK   69  A    between atoms: _166  and  _167
REMARK   70  A    between atoms: _172  and  _173
REMARK   71  A    between atoms: _175  and  _177
REMARK   72  A    between atoms: _177  and  _178
REMARK   73  A    between atoms: _177  and  _180
REMARK   74  A    between atoms: _183  and  _185
REMARK   75  A    between atoms: _185  and  _186
REMARK   76  A    between atoms: _189  and  _191
REMARK   77  A    between atoms: _191  and  _192
REMARK   78  A    between atoms: _191  and  _194
REMARK   79  A    between atoms: _194  and  _195
REMARK   80  A    between atoms: _198  and  _200
REMARK   81  A    between atoms: _200  and  _201
REMARK   82  A    between atoms: _200  and  _203
REMARK   83  A    between atoms: _206  and  _208
REMARK   84  A    between atoms: _208  and  _209
REMARK   85  A    between atoms: _208  and  _211
REMARK   86  A    between atoms: _211  and  _212
REMARK   87  A    between atoms: _222  and  _224
REMARK   88  A    between atoms: _224  and  _225
REMARK   89  A    between atoms: _227  and  _229
REMARK   90  A    between atoms: _229  and  _230
REMARK   91  A    between atoms: _229  and  _232
REMARK   92  A    between atoms: _232  and  _233
REMARK   93  A    between atoms: _238  and  _239
REMARK   94  A    between atoms: _241  and  _243
REMARK   95  A    between atoms: _243  and  _244
REMARK   96  A    between atoms: _243  and  _246
REMARK   97  A    between atoms: _246  and  _247
REMARK   98  A    between atoms: _250  and  _252
REMARK   99  A    between atoms: _252  and  _253
REMARK  100  A    between atoms: _252  and  _255
REMARK  101  A    between atoms: _255  and  _256
REMARK  102  A    between atoms: _259  and  _261
REMARK  103  A    between atoms: _261  and  _262
REMARK  104  A    between atoms: _261  and  _264
REMARK  105  A    between atoms: _264  and  _265
REMARK  106  A    between atoms: _265  and  _266
REMARK  107  A    between atoms: _266  and  _267
REMARK  108  A    between atoms: _267  and  _268
REMARK  109  A    between atoms: _272  and  _274
REMARK  110  A    between atoms: _274  and  _275
REMARK  111  A    between atoms: _274  and  _277
REMARK  112  A    between atoms: _277  and  _278
REMARK  113  A    between atoms: _281  and  _283
REMARK  114  A    between atoms: _283  and  _284
REMARK  115  A    between atoms: _283  and  _286
REMARK  116  A    between atoms: _286  and  _287
REMARK  117  A    between atoms: _287  and  _288
REMARK  118  A    between atoms: _293  and  _295
REMARK  119  A    between atoms: _295  and  _296
REMARK  120  A    between atoms: _295  and  _298
REMARK  121  A    between atoms: _298  and  _299
REMARK  122  A    between atoms: _304  and  _305
REMARK  123  A    between atoms: _307  and  _309
REMARK  124  A    between atoms: _309  and  _310
REMARK  125  A    between atoms: _309  and  _312
REMARK  126  A    between atoms: _312  and  _313
REMARK  127  A    between atoms: _316  and  _318
REMARK  128  A    between atoms: _318  and  _319
REMARK  129  A    between atoms: _318  and  _321
REMARK  130  A    between atoms: _323  and  _325
REMARK  131  A    between atoms: _325  and  _326
REMARK  132  A    between atoms: _329  and  _331
REMARK  133  A    between atoms: _331  and  _332
REMARK  134  A    between atoms: _331  and  _334
REMARK  135  A    between atoms: _334  and  _335
REMARK  136  A    between atoms: _335  and  _336
REMARK  137  A    between atoms: _336  and  _337
REMARK  138  A    between atoms: _337  and  _338
REMARK  139  A    between atoms: _342  and  _344
REMARK  140  A    between atoms: _344  and  _345
REMARK  141  A    between atoms: _344  and  _347
REMARK  142  A    between atoms: _347  and  _348
REMARK  143  A    between atoms: _351  and  _353
REMARK  144  A    between atoms: _353  and  _354
REMARK  145  A    between atoms: _357  and  _359
REMARK  146  A    between atoms: _359  and  _360
REMARK  147  A    between atoms: _359  and  _362
REMARK  148  A    between atoms: _362  and  _363
REMARK  149  A    between atoms: _363  and  _486
REMARK  150  A    between atoms: _364  and  _366
REMARK  151  A    between atoms: _366  and  _367
REMARK  152  A    between atoms: _366  and  _369
REMARK  153  A    between atoms: _369  and  _370
REMARK  154  A    between atoms: _370  and  _371
REMARK  155  A    between atoms: _371  and  _372
REMARK  156  A    between atoms: _372  and  _373
REMARK  157  A    between atoms: _377  and  _379
REMARK  158  A    between atoms: _379  and  _380
REMARK  159  A    between atoms: _382  and  _384
REMARK  160  A    between atoms: _384  and  _385
REMARK  161  A    between atoms: _384  and  _387
REMARK  162  A    between atoms: _387  and  _388
REMARK  163  A    between atoms: _391  and  _393
REMARK  164  A    between atoms: _393  and  _394
REMARK  165  A    between atoms: _393  and  _396
REMARK  166  A    between atoms: _396  and  _397
REMARK  167  A    between atoms: _399  and  _401
REMARK  168  A    between atoms: _401  and  _402
REMARK  169  A    between atoms: _404  and  _406
REMARK  170  A    between atoms: _406  and  _407
REMARK  171  A    between atoms: _409  and  _411
REMARK  172  A    between atoms: _411  and  _412
REMARK  173  A    between atoms: _411  and  _414
REMARK  174  A    between atoms: _414  and  _415
REMARK  175  A    between atoms: _418  and  _420
REMARK  176  A    between atoms: _420  and  _421
REMARK  177  A    between atoms: _420  and  _423
REMARK  178  A    between atoms: _423  and  _424
REMARK  179  A    between atoms: _427  and  _429
REMARK  180  A    between atoms: _429  and  _430
REMARK  181  A    between atoms: _429  and  _432
REMARK  182  A    between atoms: _432  and  _433
REMARK  183  A    between atoms: _436  and  _438
REMARK  184  A    between atoms: _438  and  _439
REMARK  185  A    between atoms: _438  and  _441
REMARK  186  A    between atoms: _441  and  _442
REMARK  187  A    between atoms: _444  and  _446
REMARK  188  A    between atoms: _446  and  _447
REMARK  189  A    between atoms: _446  and  _449
REMARK  190  A    between atoms: _449  and  _450
REMARK  191  A    between atoms: _460  and  _462
REMARK  192  A    between atoms: _462  and  _463
REMARK  193  A    between atoms: _465  and  _467
REMARK  194  A    between atoms: _467  and  _468
REMARK  195  A    between atoms: _467  and  _470
REMARK  196  A    between atoms: _470  and  _471
REMARK  197  A    between atoms: _471  and  _472
REMARK  198  A    between atoms: _475  and  _477
REMARK  199  A    between atoms: _477  and  _478
REMARK  200  A    between atoms: _480  and  _482
REMARK  201  A    between atoms: _482  and  _483
REMARK  202  A    between atoms: _482  and  _485
REMARK  203  A    between atoms: _485  and  _486
REMARK  204  A    between atoms: _487  and  _489
REMARK  205  A    between atoms: _489  and  _490
REMARK  206  A    between atoms: _493  and  _495
REMARK  207  A    between atoms: _495  and  _496
REMARK  208  A    between atoms: _495  and  _498
REMARK  209  A    between atoms: _498  and  _499
REMARK  210  A    between atoms: _499  and  _500
REMARK  211  A    between atoms: _505  and  _507
REMARK  212  A    between atoms: _507  and  _508
REMARK  213  A    between atoms: _507  and  _510
REMARK  214  A    between atoms: _510  and  _511
REMARK  215  A    between atoms: _511  and  _512
REMARK  216  A    between atoms: _512  and  _513
REMARK  217  A    between atoms: _523  and  _524
REMARK  218  A    between atoms: _529  and  _531
REMARK  219  A    between atoms: _531  and  _532
REMARK  220  A    between atoms: _534  and  _536
REMARK  221  A    between atoms: _536  and  _537
REMARK  222  A    between atoms: _536  and  _539
REMARK  223  A    between atoms: _542  and  _544
REMARK  224  A    between atoms: _544  and  _545
REMARK  225  A    between atoms: _544  and  _547
REMARK  226  A    between atoms: _547  and  _548
REMARK  227  A    between atoms: _553  and  _554
REMARK  228  A    between atoms: _556  and  _558
REMARK  229  A    between atoms: _558  and  _559
REMARK  230  A    between atoms: _558  and  _561
REMARK  231  A    between atoms: _561  and  _562
REMARK                            x       y       z     vdW  Elec       q    Type
REMARK                         _______ _______ _______ _____ _____    ______ ____
ROOT
ATOM      1  O   HOH     1      34.280 -24.994  23.907  0.00  0.00    +0.000 OA
ENDROOT
TORSDOF 0
REMARK  Name = ../refined-set-2016/4x6m/4x6m_pocket.pdb
REMARK  231 active torsions:
REMARK  status: ('A' for Active; 'I' for Inactive)
REMARK    1  A    between atoms: _1  and  _5
REMARK    2  A    between atoms: _5  and  _6
REMARK    3  A    between atoms: _5  and  _8
REMARK    4  A    between atoms: _8  and  _9
REMARK    5  A    between atoms: _12  and  _14
REMARK    6  A    between atoms: _14  and  _15
REMARK    7  A    between atoms: _14  and  _17
REMARK    8  A    between atoms: _20  and  _22
REMARK    9  A    between atoms: _22  and  _23
REMARK   10  A    between atoms: _22  and  _25
REMARK   11  A    between atoms: _25  and  _26
REMARK   12  A    between atoms: _29  and  _31
REMARK   13  A    between atoms: _31  and  _32
REMARK   14  A    between atoms: _31  and  _34
REMARK   15  A    between atoms: _34  and  _35
REMARK   16  A    between atoms: _40  and  _42
REMARK   17  A    between atoms: _42  and  _43
REMARK   18  A    between atoms: _42  and  _45
REMARK   19  A    between atoms: _45  and  _46
REMARK   20  A    between atoms: _49  and  _51
REMARK   21  A    between atoms: _51  and  _52
REMARK   22  A    between atoms: _51  and  _54
REMARK   23  A    between atoms: _54  and  _55
REMARK   24  A    between atoms: _58  and  _60
REMARK   25  A    between atoms: _60  and  _61
REMARK   26  A    between atoms: _60  and  _63
REMARK   27  A    between atoms: _63  and  _64
REMARK   28  A    between atoms: _64  and  _65
REMARK   29  A    between atoms: _70  and  _72
REMARK   30  A    between atoms: _72  and  _73
REMARK   31  A    between atoms: _72  and  _75
REMARK   32  A    between atoms: _75  and  _76
REMARK   33  A    between atoms: _76  and  _77
REMARK   34  A    between atoms: _77  and  _78
REMARK   35  A    between atoms: _87  and  _89
REMARK   36  A    between atoms: _89  and  _90
REMARK   37  A    between atoms: _89  and  _92
REMARK   38  A    between atoms: _92  and  _93
REMARK   39  A    between atoms: _98  and  _100
REMARK   40  A    between atoms: _100  and  _101
REMARK   41  A    between atoms: _100  and  _103
REMARK   42  A    between atoms: _103  and  _104
REMARK   43  A    between atoms: _107  and  _109
REMARK   44  A    between atoms: _109  and  _110
REMARK   45  A    between atoms: _109  and  _112
REMARK   46  A    between atoms: _112  and  _113
REMARK   47  A    between atoms: _113  and  _148
REMARK   48  A    between atoms: _114  and  _116
REMARK   49  A    between atoms: _116  and  _117
REMARK   50  A    between atoms: _119  and  _121
REMARK   51  A    between atoms: _121  and  _122
REMARK   52  A    between atoms: _125  and  _127
REMARK   53  A    between atoms: _127  and  _128
REMARK   54  A    between atoms: _131  and  _133
REMARK   55  A    between atoms: _133  and  _134
REMARK   56  A    between atoms: _133  and  _136
REMARK   57  A    between atoms: _136  and  _137
REMARK   58  A    between atoms: _142  and  _144
REMARK   59  A    between atoms: _144  and  _145
REMARK   60  A    between atoms: _144  and  _147
REMARK   61  A    between atoms: _147  and  _148
REMARK   62  A    between atoms: _149  and  _151
REMARK   63  A    between atoms: _151  and  _152
REMARK   64  A    between atoms: _151  and  _154
REMARK   65  A    between atoms: _154  and  _155
REMARK   66  A    between atoms: _161  and  _163
REMARK   67  A    between atoms: _163  and  _164
REMARK   68  A    between atoms: _163  and  _166
REMARK   69  A    between atoms: _166  and  _167
REMARK   70  A    between atoms: _172  and  _173
REMARK   71  A    between atoms: _175  and  _177
REMARK   72  A    between atoms: _177  and  _178
REMARK   73  A    between atoms: _177  and  _180
REMARK   74  A    between atoms: _183  and  _185
REMARK   75  A    between atoms: _185  and  _186
REMARK   76  A    between atoms: _189  and  _191
REMARK   77  A    between atoms: _191  and  _192
REMARK   78  A    between atoms: _191  and  _194
REMARK   79  A    between atoms: _194  and  _195
REMARK   80  A    between atoms: _198  and  _200
REMARK   81  A    between atoms: _200  and  _201
REMARK   82  A    between atoms: _200  and  _203
REMARK   83  A    between atoms: _206  and  _208
REMARK   84  A    between atoms: _208  and  _209
REMARK   85  A    between atoms: _208  and  _211
REMARK   86  A    between atoms: _211  and  _212
REMARK   87  A    between atoms: _222  and  _224
REMARK   88  A    between atoms: _224  and  _225
REMARK   89  A    between atoms: _227  and  _229
REMARK   90  A    between atoms: _229  and  _230
REMARK   91  A    between atoms: _229  and  _232
REMARK   92  A    between atoms: _232  and  _233
REMARK   93  A    between atoms: _238  and  _239
REMARK   94  A    between atoms: _241  and  _243
REMARK   95  A    between atoms: _243  and  _244
REMARK   96  A    between atoms: _243  and  _246
REMARK   97  A    between atoms: _246  and  _247
REMARK   98  A    between atoms: _250  and  _252
REMARK   99  A    between atoms: _252  and  _253
REMARK  100  A    between atoms: _252  and  _255
REMARK  101  A    between atoms: _255  and  _256
REMARK  102  A    between atoms: _259  and  _261
REMARK  103  A    between atoms: _261  and  _262
REMARK  104  A    between atoms: _261  and  _264
REMARK  105  A    between atoms: _264  and  _265
REMARK  106  A    between atoms: _265  and  _266
REMARK  107  A    between atoms: _266  and  _267
REMARK  108  A    between atoms: _267  and  _268
REMARK  109  A    between atoms: _272  and  _274
REMARK  110  A    between atoms: _274  and  _275
REMARK  111  A    between atoms: _274  and  _277
REMARK  112  A    between atoms: _277  and  _278
REMARK  113  A    between atoms: _281  and  _283
REMARK  114  A    between atoms: _283  and  _284
REMARK  115  A    between atoms: _283  and  _286
REMARK  116  A    between atoms: _286  and  _287
REMARK  117  A    between atoms: _287  and  _288
REMARK  118  A    between atoms: _293  and  _295
REMARK  119  A    between atoms: _295  and  _296
REMARK  120  A    between atoms: _295  and  _298
REMARK  121  A    between atoms: _298  and  _299
REMARK  122  A    between atoms: _304  and  _305
REMARK  123  A    between atoms: _307  and  _309
REMARK  124  A    between atoms: _309  and  _310
REMARK  125  A    between atoms: _309  and  _312
REMARK  126  A    between atoms: _312  and  _313
REMARK  127  A    between atoms: _316  and  _318
REMARK  128  A    between atoms: _318  and  _319
REMARK  129  A    between atoms: _318  and  _321
REMARK  130  A    between atoms: _323  and  _325
REMARK  131  A    between atoms: _325  and  _326
REMARK  132  A    between atoms: _329  and  _331
REMARK  133  A    between atoms: _331  and  _332
REMARK  134  A    between atoms: _331  and  _334
REMARK  135  A    between atoms: _334  and  _335
REMARK  136  A    between atoms: _335  and  _336
REMARK  137  A    between atoms: _336  and  _337
REMARK  138  A    between atoms: _337  and  _338
REMARK  139  A    between atoms: _342  and  _344
REMARK  140  A    between atoms: _344  and  _345
REMARK  141  A    between atoms: _344  and  _347
REMARK  142  A    between atoms: _347  and  _348
REMARK  143  A    between atoms: _351  and  _353
REMARK  144  A    between atoms: _353  and  _354
REMARK  145  A    between atoms: _357  and  _359
REMARK  146  A    between atoms: _359  and  _360
REMARK  147  A    between atoms: _359  and  _362
REMARK  148  A    between atoms: _362  and  _363
REMARK  149  A    between atoms: _363  and  _486
REMARK  150  A    between atoms: _364  and  _366
REMARK  151  A    between atoms: _366  and  _367
REMARK  152  A    between atoms: _366  and  _369
REMARK  153  A    between atoms: _369  and  _370
REMARK  154  A    between atoms: _370  and  _371
REMARK  155  A    between atoms: _371  and  _372
REMARK  156  A    between atoms: _372  and  _373
REMARK  157  A    between atoms: _377  and  _379
REMARK  158  A    between atoms: _379  and  _380
REMARK  159  A    between atoms: _382  and  _384
REMARK  160  A    between atoms: _384  and  _385
REMARK  161  A    between atoms: _384  and  _387
REMARK  162  A    between atoms: _387  and  _388
REMARK  163  A    between atoms: _391  and  _393
REMARK  164  A    between atoms: _393  and  _394
REMARK  165  A    between atoms: _393  and  _396
REMARK  166  A    between atoms: _396  and  _397
REMARK  167  A    between atoms: _399  and  _401
REMARK  168  A    between atoms: _401  and  _402
REMARK  169  A    between atoms: _404  and  _406
REMARK  170  A    between atoms: _406  and  _407
REMARK  171  A    between atoms: _409  and  _411
REMARK  172  A    between atoms: _411  and  _412
REMARK  173  A    between atoms: _411  and  _414
REMARK  174  A    between atoms: _414  and  _415
REMARK  175  A    between atoms: _418  and  _420
REMARK  176  A    between atoms: _420  and  _421
REMARK  177  A    between atoms: _420  and  _423
REMARK  178  A    between atoms: _423  and  _424
REMARK  179  A    between atoms: _427  and  _429
REMARK  180  A    between atoms: _429  and  _430
REMARK  181  A    between atoms: _429  and  _432
REMARK  182  A    between atoms: _432  and  _433
REMARK  183  A    between atoms: _436  and  _438
REMARK  184  A    between atoms: _438  and  _439
REMARK  185  A    between atoms: _438  and  _441
REMARK  186  A    between atoms: _441  and  _442
REMARK  187  A    between atoms: _444  and  _446
REMARK  188  A    between atoms: _446  and  _447
REMARK  189  A    between atoms: _446  and  _449
REMARK  190  A    between atoms: _449  and  _450
REMARK  191  A    between atoms: _460  and  _462
REMARK  192  A    between atoms: _462  and  _463
REMARK  193  A    between atoms: _465  and  _467
REMARK  194  A    between atoms: _467  and  _468
REMARK  195  A    between atoms: _467  and  _470
REMARK  196  A    between atoms: _470  and  _471
REMARK  197  A    between atoms: _471  and  _472
REMARK  198  A    between atoms: _475  and  _477
REMARK  199  A    between atoms: _477  and  _478
REMARK  200  A    between atoms: _480  and  _482
REMARK  201  A    between atoms: _482  and  _483
REMARK  202  A    between atoms: _482  and  _485
REMARK  203  A    between atoms: _485  and  _486
REMARK  204  A    between atoms: _487  and  _489
REMARK  205  A    between atoms: _489  and  _490
REMARK  206  A    between atoms: _493  and  _495
REMARK  207  A    between atoms: _495  and  _496
REMARK  208  A    between atoms: _495  and  _498
REMARK  209  A    between atoms: _498  and  _499
REMARK  210  A    between atoms: _499  and  _500
REMARK  211  A    between atoms: _505  and  _507
REMARK  212  A    between atoms: _507  and  _508
REMARK  213  A    between atoms: _507  and  _510
REMARK  214  A    between atoms: _510  and  _511
REMARK  215  A    between atoms: _511  and  _512
REMARK  216  A    between atoms: _512  and  _513
REMARK  217  A    between atoms: _523  and  _524
REMARK  218  A    between atoms: _529  and  _531
REMARK  219  A    between atoms: _531  and  _532
REMARK  220  A    between atoms: _534  and  _536
REMARK  221  A    between atoms: _536  and  _537
REMARK  222  A    between atoms: _536  and  _539
REMARK  223  A    between atoms: _542  and  _544
REMARK  224  A    between atoms: _544  and  _545
REMARK  225  A    between atoms: _544  and  _547
REMARK  226  A    between atoms: _547  and  _548
REMARK  227  A    between atoms: _553  and  _554
REMARK  228  A    between atoms: _556  and  _558
REMARK  229  A    between atoms: _558  and  _559
REMARK  230  A    between atoms: _558  and  _561
REMARK  231  A    between atoms: _561  and  _562
REMARK                            x       y       z     vdW  Elec       q    Type
REMARK                         _______ _______ _______ _____ _____    ______ ____
ROOT
ATOM      1  O   HOH     1      39.326 -15.735  21.283  0.00  0.00    +0.000 OA
ENDROOT
TORSDOF 0
REMARK  Name = ../refined-set-2016/4x6m/4x6m_pocket.pdb
REMARK  231 active torsions:
REMARK  status: ('A' for Active; 'I' for Inactive)
REMARK    1  A    between atoms: _1  and  _5
REMARK    2  A    between atoms: _5  and  _6
REMARK    3  A    between atoms: _5  and  _8
REMARK    4  A    between atoms: _8  and  _9
REMARK    5  A    between atoms: _12  and  _14
REMARK    6  A    between atoms: _14  and  _15
REMARK    7  A    between atoms: _14  and  _17
REMARK    8  A    between atoms: _20  and  _22
REMARK    9  A    between atoms: _22  and  _23
REMARK   10  A    between atoms: _22  and  _25
REMARK   11  A    between atoms: _25  and  _26
REMARK   12  A    between atoms: _29  and  _31
REMARK   13  A    between atoms: _31  and  _32
REMARK   14  A    between atoms: _31  and  _34
REMARK   15  A    between atoms: _34  and  _35
REMARK   16  A    between atoms: _40  and  _42
REMARK   17  A    between atoms: _42  and  _43
REMARK   18  A    between atoms: _42  and  _45
REMARK   19  A    between atoms: _45  and  _46
REMARK   20  A    between atoms: _49  and  _51
REMARK   21  A    between atoms: _51  and  _52
REMARK   22  A    between atoms: _51  and  _54
REMARK   23  A    between atoms: _54  and  _55
REMARK   24  A    between atoms: _58  and  _60
REMARK   25  A    between atoms: _60  and  _61
REMARK   26  A    between atoms: _60  and  _63
REMARK   27  A    between atoms: _63  and  _64
REMARK   28  A    between atoms: _64  and  _65
REMARK   29  A    between atoms: _70  and  _72
REMARK   30  A    between atoms: _72  and  _73
REMARK   31  A    between atoms: _72  and  _75
REMARK   32  A    between atoms: _75  and  _76
REMARK   33  A    between atoms: _76  and  _77
REMARK   34  A    between atoms: _77  and  _78
REMARK   35  A    between atoms: _87  and  _89
REMARK   36  A    between atoms: _89  and  _90
REMARK   37  A    between atoms: _89  and  _92
REMARK   38  A    between atoms: _92  and  _93
REMARK   39  A    between atoms: _98  and  _100
REMARK   40  A    between atoms: _100  and  _101
REMARK   41  A    between atoms: _100  and  _103
REMARK   42  A    between atoms: _103  and  _104
REMARK   43  A    between atoms: _107  and  _109
REMARK   44  A    between atoms: _109  and  _110
REMARK   45  A    between atoms: _109  and  _112
REMARK   46  A    between atoms: _112  and  _113
REMARK   47  A    between atoms: _113  and  _148
REMARK   48  A    between atoms: _114  and  _116
REMARK   49  A    between atoms: _116  and  _117
REMARK   50  A    between atoms: _119  and  _121
REMARK   51  A    between atoms: _121  and  _122
REMARK   52  A    between atoms: _125  and  _127
REMARK   53  A    between atoms: _127  and  _128
REMARK   54  A    between atoms: _131  and  _133
REMARK   55  A    between atoms: _133  and  _134
REMARK   56  A    between atoms: _133  and  _136
REMARK   57  A    between atoms: _136  and  _137
REMARK   58  A    between atoms: _142  and  _144
REMARK   59  A    between atoms: _144  and  _145
REMARK   60  A    between atoms: _144  and  _147
REMARK   61  A    between atoms: _147  and  _148
REMARK   62  A    between atoms: _149  and  _151
REMARK   63  A    between atoms: _151  and  _152
REMARK   64  A    between atoms: _151  and  _154
REMARK   65  A    between atoms: _154  and  _155
REMARK   66  A    between atoms: _161  and  _163
REMARK   67  A    between atoms: _163  and  _164
REMARK   68  A    between atoms: _163  and  _166
REMARK   69  A    between atoms: _166  and  _167
REMARK   70  A    between atoms: _172  and  _173
REMARK   71  A    between atoms: _175  and  _177
REMARK   72  A    between atoms: _177  and  _178
REMARK   73  A    between atoms: _177  and  _180
REMARK   74  A    between atoms: _183  and  _185
REMARK   75  A    between atoms: _185  and  _186
REMARK   76  A    between atoms: _189  and  _191
REMARK   77  A    between atoms: _191  and  _192
REMARK   78  A    between atoms: _191  and  _194
REMARK   79  A    between atoms: _194  and  _195
REMARK   80  A    between atoms: _198  and  _200
REMARK   81  A    between atoms: _200  and  _201
REMARK   82  A    between atoms: _200  and  _203
REMARK   83  A    between atoms: _206  and  _208
REMARK   84  A    between atoms: _208  and  _209
REMARK   85  A    between atoms: _208  and  _211
REMARK   86  A    between atoms: _211  and  _212
REMARK   87  A    between atoms: _222  and  _224
REMARK   88  A    between atoms: _224  and  _225
REMARK   89  A    between atoms: _227  and  _229
REMARK   90  A    between atoms: _229  and  _230
REMARK   91  A    between atoms: _229  and  _232
REMARK   92  A    between atoms: _232  and  _233
REMARK   93  A    between atoms: _238  and  _239
REMARK   94  A    between atoms: _241  and  _243
REMARK   95  A    between atoms: _243  and  _244
REMARK   96  A    between atoms: _243  and  _246
REMARK   97  A    between atoms: _246  and  _247
REMARK   98  A    between atoms: _250  and  _252
REMARK   99  A    between atoms: _252  and  _253
REMARK  100  A    between atoms: _252  and  _255
REMARK  101  A    between atoms: _255  and  _256
REMARK  102  A    between atoms: _259  and  _261
REMARK  103  A    between atoms: _261  and  _262
REMARK  104  A    between atoms: _261  and  _264
REMARK  105  A    between atoms: _264  and  _265
REMARK  106  A    between atoms: _265  and  _266
REMARK  107  A    between atoms: _266  and  _267
REMARK  108  A    between atoms: _267  and  _268
REMARK  109  A    between atoms: _272  and  _274
REMARK  110  A    between atoms: _274  and  _275
REMARK  111  A    between atoms: _274  and  _277
REMARK  112  A    between atoms: _277  and  _278
REMARK  113  A    between atoms: _281  and  _283
REMARK  114  A    between atoms: _283  and  _284
REMARK  115  A    between atoms: _283  and  _286
REMARK  116  A    between atoms: _286  and  _287
REMARK  117  A    between atoms: _287  and  _288
REMARK  118  A    between atoms: _293  and  _295
REMARK  119  A    between atoms: _295  and  _296
REMARK  120  A    between atoms: _295  and  _298
REMARK  121  A    between atoms: _298  and  _299
REMARK  122  A    between atoms: _304  and  _305
REMARK  123  A    between atoms: _307  and  _309
REMARK  124  A    between atoms: _309  and  _310
REMARK  125  A    between atoms: _309  and  _312
REMARK  126  A    between atoms: _312  and  _313
REMARK  127  A    between atoms: _316  and  _318
REMARK  128  A    between atoms: _318  and  _319
REMARK  129  A    between atoms: _318  and  _321
REMARK  130  A    between atoms: _323  and  _325
REMARK  131  A    between atoms: _325  and  _326
REMARK  132  A    between atoms: _329  and  _331
REMARK  133  A    between atoms: _331  and  _332
REMARK  134  A    between atoms: _331  and  _334
REMARK  135  A    between atoms: _334  and  _335
REMARK  136  A    between atoms: _335  and  _336
REMARK  137  A    between atoms: _336  and  _337
REMARK  138  A    between atoms: _337  and  _338
REMARK  139  A    between atoms: _342  and  _344
REMARK  140  A    between atoms: _344  and  _345
REMARK  141  A    between atoms: _344  and  _347
REMARK  142  A    between atoms: _347  and  _348
REMARK  143  A    between atoms: _351  and  _353
REMARK  144  A    between atoms: _353  and  _354
REMARK  145  A    between atoms: _357  and  _359
REMARK  146  A    between atoms: _359  and  _360
REMARK  147  A    between atoms: _359  and  _362
REMARK  148  A    between atoms: _362  and  _363
REMARK  149  A    between atoms: _363  and  _486
REMARK  150  A    between atoms: _364  and  _366
REMARK  151  A    between atoms: _366  and  _367
REMARK  152  A    between atoms: _366  and  _369
REMARK  153  A    between atoms: _369  and  _370
REMARK  154  A    between atoms: _370  and  _371
REMARK  155  A    between atoms: _371  and  _372
REMARK  156  A    between atoms: _372  and  _373
REMARK  157  A    between atoms: _377  and  _379
REMARK  158  A    between atoms: _379  and  _380
REMARK  159  A    between atoms: _382  and  _384
REMARK  160  A    between atoms: _384  and  _385
REMARK  161  A    between atoms: _384  and  _387
REMARK  162  A    between atoms: _387  and  _388
REMARK  163  A    between atoms: _391  and  _393
REMARK  164  A    between atoms: _393  and  _394
REMARK  165  A    between atoms: _393  and  _396
REMARK  166  A    between atoms: _396  and  _397
REMARK  167  A    between atoms: _399  and  _401
REMARK  168  A    between atoms: _401  and  _402
REMARK  169  A    between atoms: _404  and  _406
REMARK  170  A    between atoms: _406  and  _407
REMARK  171  A    between atoms: _409  and  _411
REMARK  172  A    between atoms: _411  and  _412
REMARK  173  A    between atoms: _411  and  _414
REMARK  174  A    between atoms: _414  and  _415
REMARK  175  A    between atoms: _418  and  _420
REMARK  176  A    between atoms: _420  and  _421
REMARK  177  A    between atoms: _420  and  _423
REMARK  178  A    between atoms: _423  and  _424
REMARK  179  A    between atoms: _427  and  _429
REMARK  180  A    between atoms: _429  and  _430
REMARK  181  A    between atoms: _429  and  _432
REMARK  182  A    between atoms: _432  and  _433
REMARK  183  A    between atoms: _436  and  _438
REMARK  184  A    between atoms: _438  and  _439
REMARK  185  A    between atoms: _438  and  _441
REMARK  186  A    between atoms: _441  and  _442
REMARK  187  A    between atoms: _444  and  _446
REMARK  188  A    between atoms: _446  and  _447
REMARK  189  A    between atoms: _446  and  _449
REMARK  190  A    between atoms: _449  and  _450
REMARK  191  A    between atoms: _460  and  _462
REMARK  192  A    between atoms: _462  and  _463
REMARK  193  A    between atoms: _465  and  _467
REMARK  194  A    between atoms: _467  and  _468
REMARK  195  A    between atoms: _467  and  _470
REMARK  196  A    between atoms: _470  and  _471
REMARK  197  A    between atoms: _471  and  _472
REMARK  198  A    between atoms: _475  and  _477
REMARK  199  A    between atoms: _477  and  _478
REMARK  200  A    between atoms: _480  and  _482
REMARK  201  A    between atoms: _482  and  _483
REMARK  202  A    between atoms: _482  and  _485
REMARK  203  A    between atoms: _485  and  _486
REMARK  204  A    between atoms: _487  and  _489
REMARK  205  A    between atoms: _489  and  _490
REMARK  206  A    between atoms: _493  and  _495
REMARK  207  A    between atoms: _495  and  _496
REMARK  208  A    between atoms: _495  and  _498
REMARK  209  A    between atoms: _498  and  _499
REMARK  210  A    between atoms: _499  and  _500
REMARK  211  A    between atoms: _505  and  _507
REMARK  212  A    between atoms: _507  and  _508
REMARK  213  A    between atoms: _507  and  _510
REMARK  214  A    between atoms: _510  and  _511
REMARK  215  A    between atoms: _511  and  _512
REMARK  216  A    between atoms: _512  and  _513
REMARK  217  A    between atoms: _523  and  _524
REMARK  218  A    between atoms: _529  and  _531
REMARK  219  A    between atoms: _531  and  _532
REMARK  220  A    between atoms: _534  and  _536
REMARK  221  A    between atoms: _536  and  _537
REMARK  222  A    between atoms: _536  and  _539
REMARK  223  A    between atoms: _542  and  _544
REMARK  224  A    between atoms: _544  and  _545
REMARK  225  A    between atoms: _544  and  _547
REMARK  226  A    between atoms: _547  and  _548
REMARK  227  A    between atoms: _553  and  _554
REMARK  228  A    between atoms: _556  and  _558
REMARK  229  A    between atoms: _558  and  _559
REMARK  230  A    between atoms: _558  and  _561
REMARK  231  A    between atoms: _561  and  _562
REMARK                            x       y       z     vdW  Elec       q    Type
REMARK                         _______ _______ _______ _____ _____    ______ ____
ROOT
ATOM      1  O   HOH     1      36.817 -23.402  25.473  0.00  0.00    +0.000 OA
ENDROOT
TORSDOF 0
REMARK  Name = ../refined-set-2016/4x6m/4x6m_pocket.pdb
REMARK  231 active torsions:
REMARK  status: ('A' for Active; 'I' for Inactive)
REMARK    1  A    between atoms: _1  and  _5
REMARK    2  A    between atoms: _5  and  _6
REMARK    3  A    between atoms: _5  and  _8
REMARK    4  A    between atoms: _8  and  _9
REMARK    5  A    between atoms: _12  and  _14
REMARK    6  A    between atoms: _14  and  _15
REMARK    7  A    between atoms: _14  and  _17
REMARK    8  A    between atoms: _20  and  _22
REMARK    9  A    between atoms: _22  and  _23
REMARK   10  A    between atoms: _22  and  _25
REMARK   11  A    between atoms: _25  and  _26
REMARK   12  A    between atoms: _29  and  _31
REMARK   13  A    between atoms: _31  and  _32
REMARK   14  A    between atoms: _31  and  _34
REMARK   15  A    between atoms: _34  and  _35
REMARK   16  A    between atoms: _40  and  _42
REMARK   17  A    between atoms: _42  and  _43
REMARK   18  A    between atoms: _42  and  _45
REMARK   19  A    between atoms: _45  and  _46
REMARK   20  A    between atoms: _49  and  _51
REMARK   21  A    between atoms: _51  and  _52
REMARK   22  A    between atoms: _51  and  _54
REMARK   23  A    between atoms: _54  and  _55
REMARK   24  A    between atoms: _58  and  _60
REMARK   25  A    between atoms: _60  and  _61
REMARK   26  A    between atoms: _60  and  _63
REMARK   27  A    between atoms: _63  and  _64
REMARK   28  A    between atoms: _64  and  _65
REMARK   29  A    between atoms: _70  and  _72
REMARK   30  A    between atoms: _72  and  _73
REMARK   31  A    between atoms: _72  and  _75
REMARK   32  A    between atoms: _75  and  _76
REMARK   33  A    between atoms: _76  and  _77
REMARK   34  A    between atoms: _77  and  _78
REMARK   35  A    between atoms: _87  and  _89
REMARK   36  A    between atoms: _89  and  _90
REMARK   37  A    between atoms: _89  and  _92
REMARK   38  A    between atoms: _92  and  _93
REMARK   39  A    between atoms: _98  and  _100
REMARK   40  A    between atoms: _100  and  _101
REMARK   41  A    between atoms: _100  and  _103
REMARK   42  A    between atoms: _103  and  _104
REMARK   43  A    between atoms: _107  and  _109
REMARK   44  A    between atoms: _109  and  _110
REMARK   45  A    between atoms: _109  and  _112
REMARK   46  A    between atoms: _112  and  _113
REMARK   47  A    between atoms: _113  and  _148
REMARK   48  A    between atoms: _114  and  _116
REMARK   49  A    between atoms: _116  and  _117
REMARK   50  A    between atoms: _119  and  _121
REMARK   51  A    between atoms: _121  and  _122
REMARK   52  A    between atoms: _125  and  _127
REMARK   53  A    between atoms: _127  and  _128
REMARK   54  A    between atoms: _131  and  _133
REMARK   55  A    between atoms: _133  and  _134
REMARK   56  A    between atoms: _133  and  _136
REMARK   57  A    between atoms: _136  and  _137
REMARK   58  A    between atoms: _142  and  _144
REMARK   59  A    between atoms: _144  and  _145
REMARK   60  A    between atoms: _144  and  _147
REMARK   61  A    between atoms: _147  and  _148
REMARK   62  A    between atoms: _149  and  _151
REMARK   63  A    between atoms: _151  and  _152
REMARK   64  A    between atoms: _151  and  _154
REMARK   65  A    between atoms: _154  and  _155
REMARK   66  A    between atoms: _161  and  _163
REMARK   67  A    between atoms: _163  and  _164
REMARK   68  A    between atoms: _163  and  _166
REMARK   69  A    between atoms: _166  and  _167
REMARK   70  A    between atoms: _172  and  _173
REMARK   71  A    between atoms: _175  and  _177
REMARK   72  A    between atoms: _177  and  _178
REMARK   73  A    between atoms: _177  and  _180
REMARK   74  A    between atoms: _183  and  _185
REMARK   75  A    between atoms: _185  and  _186
REMARK   76  A    between atoms: _189  and  _191
REMARK   77  A    between atoms: _191  and  _192
REMARK   78  A    between atoms: _191  and  _194
REMARK   79  A    between atoms: _194  and  _195
REMARK   80  A    between atoms: _198  and  _200
REMARK   81  A    between atoms: _200  and  _201
REMARK   82  A    between atoms: _200  and  _203
REMARK   83  A    between atoms: _206  and  _208
REMARK   84  A    between atoms: _208  and  _209
REMARK   85  A    between atoms: _208  and  _211
REMARK   86  A    between atoms: _211  and  _212
REMARK   87  A    between atoms: _222  and  _224
REMARK   88  A    between atoms: _224  and  _225
REMARK   89  A    between atoms: _227  and  _229
REMARK   90  A    between atoms: _229  and  _230
REMARK   91  A    between atoms: _229  and  _232
REMARK   92  A    between atoms: _232  and  _233
REMARK   93  A    between atoms: _238  and  _239
REMARK   94  A    between atoms: _241  and  _243
REMARK   95  A    between atoms: _243  and  _244
REMARK   96  A    between atoms: _243  and  _246
REMARK   97  A    between atoms: _246  and  _247
REMARK   98  A    between atoms: _250  and  _252
REMARK   99  A    between atoms: _252  and  _253
REMARK  100  A    between atoms: _252  and  _255
REMARK  101  A    between atoms: _255  and  _256
REMARK  102  A    between atoms: _259  and  _261
REMARK  103  A    between atoms: _261  and  _262
REMARK  104  A    between atoms: _261  and  _264
REMARK  105  A    between atoms: _264  and  _265
REMARK  106  A    between atoms: _265  and  _266
REMARK  107  A    between atoms: _266  and  _267
REMARK  108  A    between atoms: _267  and  _268
REMARK  109  A    between atoms: _272  and  _274
REMARK  110  A    between atoms: _274  and  _275
REMARK  111  A    between atoms: _274  and  _277
REMARK  112  A    between atoms: _277  and  _278
REMARK  113  A    between atoms: _281  and  _283
REMARK  114  A    between atoms: _283  and  _284
REMARK  115  A    between atoms: _283  and  _286
REMARK  116  A    between atoms: _286  and  _287
REMARK  117  A    between atoms: _287  and  _288
REMARK  118  A    between atoms: _293  and  _295
REMARK  119  A    between atoms: _295  and  _296
REMARK  120  A    between atoms: _295  and  _298
REMARK  121  A    between atoms: _298  and  _299
REMARK  122  A    between atoms: _304  and  _305
REMARK  123  A    between atoms: _307  and  _309
REMARK  124  A    between atoms: _309  and  _310
REMARK  125  A    between atoms: _309  and  _312
REMARK  126  A    between atoms: _312  and  _313
REMARK  127  A    between atoms: _316  and  _318
REMARK  128  A    between atoms: _318  and  _319
REMARK  129  A    between atoms: _318  and  _321
REMARK  130  A    between atoms: _323  and  _325
REMARK  131  A    between atoms: _325  and  _326
REMARK  132  A    between atoms: _329  and  _331
REMARK  133  A    between atoms: _331  and  _332
REMARK  134  A    between atoms: _331  and  _334
REMARK  135  A    between atoms: _334  and  _335
REMARK  136  A    between atoms: _335  and  _336
REMARK  137  A    between atoms: _336  and  _337
REMARK  138  A    between atoms: _337  and  _338
REMARK  139  A    between atoms: _342  and  _344
REMARK  140  A    between atoms: _344  and  _345
REMARK  141  A    between atoms: _344  and  _347
REMARK  142  A    between atoms: _347  and  _348
REMARK  143  A    between atoms: _351  and  _353
REMARK  144  A    between atoms: _353  and  _354
REMARK  145  A    between atoms: _357  and  _359
REMARK  146  A    between atoms: _359  and  _360
REMARK  147  A    between atoms: _359  and  _362
REMARK  148  A    between atoms: _362  and  _363
REMARK  149  A    between atoms: _363  and  _486
REMARK  150  A    between atoms: _364  and  _366
REMARK  151  A    between atoms: _366  and  _367
REMARK  152  A    between atoms: _366  and  _369
REMARK  153  A    between atoms: _369  and  _370
REMARK  154  A    between atoms: _370  and  _371
REMARK  155  A    between atoms: _371  and  _372
REMARK  156  A    between atoms: _372  and  _373
REMARK  157  A    between atoms: _377  and  _379
REMARK  158  A    between atoms: _379  and  _380
REMARK  159  A    between atoms: _382  and  _384
REMARK  160  A    between atoms: _384  and  _385
REMARK  161  A    between atoms: _384  and  _387
REMARK  162  A    between atoms: _387  and  _388
REMARK  163  A    between atoms: _391  and  _393
REMARK  164  A    between atoms: _393  and  _394
REMARK  165  A    between atoms: _393  and  _396
REMARK  166  A    between atoms: _396  and  _397
REMARK  167  A    between atoms: _399  and  _401
REMARK  168  A    between atoms: _401  and  _402
REMARK  169  A    between atoms: _404  and  _406
REMARK  170  A    between atoms: _406  and  _407
REMARK  171  A    between atoms: _409  and  _411
REMARK  172  A    between atoms: _411  and  _412
REMARK  173  A    between atoms: _411  and  _414
REMARK  174  A    between atoms: _414  and  _415
REMARK  175  A    between atoms: _418  and  _420
REMARK  176  A    between atoms: _420  and  _421
REMARK  177  A    between atoms: _420  and  _423
REMARK  178  A    between atoms: _423  and  _424
REMARK  179  A    between atoms: _427  and  _429
REMARK  180  A    between atoms: _429  and  _430
REMARK  181  A    between atoms: _429  and  _432
REMARK  182  A    between atoms: _432  and  _433
REMARK  183  A    between atoms: _436  and  _438
REMARK  184  A    between atoms: _438  and  _439
REMARK  185  A    between atoms: _438  and  _441
REMARK  186  A    between atoms: _441  and  _442
REMARK  187  A    between atoms: _444  and  _446
REMARK  188  A    between atoms: _446  and  _447
REMARK  189  A    between atoms: _446  and  _449
REMARK  190  A    between atoms: _449  and  _450
REMARK  191  A    between atoms: _460  and  _462
REMARK  192  A    between atoms: _462  and  _463
REMARK  193  A    between atoms: _465  and  _467
REMARK  194  A    between atoms: _467  and  _468
REMARK  195  A    between atoms: _467  and  _470
REMARK  196  A    between atoms: _470  and  _471
REMARK  197  A    between atoms: _471  and  _472
REMARK  198  A    between atoms: _475  and  _477
REMARK  199  A    between atoms: _477  and  _478
REMARK  200  A    between atoms: _480  and  _482
REMARK  201  A    between atoms: _482  and  _483
REMARK  202  A    between atoms: _482  and  _485
REMARK  203  A    between atoms: _485  and  _486
REMARK  204  A    between atoms: _487  and  _489
REMARK  205  A    between atoms: _489  and  _490
REMARK  206  A    between atoms: _493  and  _495
REMARK  207  A    between atoms: _495  and  _496
REMARK  208  A    between atoms: _495  and  _498
REMARK  209  A    between atoms: _498  and  _499
REMARK  210  A    between atoms: _499  and  _500
REMARK  211  A    between atoms: _505  and  _507
REMARK  212  A    between atoms: _507  and  _508
REMARK  213  A    between atoms: _507  and  _510
REMARK  214  A    between atoms: _510  and  _511
REMARK  215  A    between atoms: _511  and  _512
REMARK  216  A    between atoms: _512  and  _513
REMARK  217  A    between atoms: _523  and  _524
REMARK  218  A    between atoms: _529  and  _531
REMARK  219  A    between atoms: _531  and  _532
REMARK  220  A    between atoms: _534  and  _536
REMARK  221  A    between atoms: _536  and  _537
REMARK  222  A    between atoms: _536  and  _539
REMARK  223  A    between atoms: _542  and  _544
REMARK  224  A    between atoms: _544  and  _545
REMARK  225  A    between atoms: _544  and  _547
REMARK  226  A    between atoms: _547  and  _548
REMARK  227  A    between atoms: _553  and  _554
REMARK  228  A    between atoms: _556  and  _558
REMARK  229  A    between atoms: _558  and  _559
REMARK  230  A    between atoms: _558  and  _561
REMARK  231  A    between atoms: _561  and  _562
REMARK                            x       y       z     vdW  Elec       q    Type
REMARK                         _______ _______ _______ _____ _____    ______ ____
ROOT
ATOM      1  O   HOH     1      40.677 -21.360  32.344  0.00  0.00    +0.000 OA
ENDROOT
TORSDOF 0
REMARK  Name = ../refined-set-2016/4x6m/4x6m_pocket.pdb
REMARK  231 active torsions:
REMARK  status: ('A' for Active; 'I' for Inactive)
REMARK    1  A    between atoms: _1  and  _5
REMARK    2  A    between atoms: _5  and  _6
REMARK    3  A    between atoms: _5  and  _8
REMARK    4  A    between atoms: _8  and  _9
REMARK    5  A    between atoms: _12  and  _14
REMARK    6  A    between atoms: _14  and  _15
REMARK    7  A    between atoms: _14  and  _17
REMARK    8  A    between atoms: _20  and  _22
REMARK    9  A    between atoms: _22  and  _23
REMARK   10  A    between atoms: _22  and  _25
REMARK   11  A    between atoms: _25  and  _26
REMARK   12  A    between atoms: _29  and  _31
REMARK   13  A    between atoms: _31  and  _32
REMARK   14  A    between atoms: _31  and  _34
REMARK   15  A    between atoms: _34  and  _35
REMARK   16  A    between atoms: _40  and  _42
REMARK   17  A    between atoms: _42  and  _43
REMARK   18  A    between atoms: _42  and  _45
REMARK   19  A    between atoms: _45  and  _46
REMARK   20  A    between atoms: _49  and  _51
REMARK   21  A    between atoms: _51  and  _52
REMARK   22  A    between atoms: _51  and  _54
REMARK   23  A    between atoms: _54  and  _55
REMARK   24  A    between atoms: _58  and  _60
REMARK   25  A    between atoms: _60  and  _61
REMARK   26  A    between atoms: _60  and  _63
REMARK   27  A    between atoms: _63  and  _64
REMARK   28  A    between atoms: _64  and  _65
REMARK   29  A    between atoms: _70  and  _72
REMARK   30  A    between atoms: _72  and  _73
REMARK   31  A    between atoms: _72  and  _75
REMARK   32  A    between atoms: _75  and  _76
REMARK   33  A    between atoms: _76  and  _77
REMARK   34  A    between atoms: _77  and  _78
REMARK   35  A    between atoms: _87  and  _89
REMARK   36  A    between atoms: _89  and  _90
REMARK   37  A    between atoms: _89  and  _92
REMARK   38  A    between atoms: _92  and  _93
REMARK   39  A    between atoms: _98  and  _100
REMARK   40  A    between atoms: _100  and  _101
REMARK   41  A    between atoms: _100  and  _103
REMARK   42  A    between atoms: _103  and  _104
REMARK   43  A    between atoms: _107  and  _109
REMARK   44  A    between atoms: _109  and  _110
REMARK   45  A    between atoms: _109  and  _112
REMARK   46  A    between atoms: _112  and  _113
REMARK   47  A    between atoms: _113  and  _148
REMARK   48  A    between atoms: _114  and  _116
REMARK   49  A    between atoms: _116  and  _117
REMARK   50  A    between atoms: _119  and  _121
REMARK   51  A    between atoms: _121  and  _122
REMARK   52  A    between atoms: _125  and  _127
REMARK   53  A    between atoms: _127  and  _128
REMARK   54  A    between atoms: _131  and  _133
REMARK   55  A    between atoms: _133  and  _134
REMARK   56  A    between atoms: _133  and  _136
REMARK   57  A    between atoms: _136  and  _137
REMARK   58  A    between atoms: _142  and  _144
REMARK   59  A    between atoms: _144  and  _145
REMARK   60  A    between atoms: _144  and  _147
REMARK   61  A    between atoms: _147  and  _148
REMARK   62  A    between atoms: _149  and  _151
REMARK   63  A    between atoms: _151  and  _152
REMARK   64  A    between atoms: _151  and  _154
REMARK   65  A    between atoms: _154  and  _155
REMARK   66  A    between atoms: _161  and  _163
REMARK   67  A    between atoms: _163  and  _164
REMARK   68  A    between atoms: _163  and  _166
REMARK   69  A    between atoms: _166  and  _167
REMARK   70  A    between atoms: _172  and  _173
REMARK   71  A    between atoms: _175  and  _177
REMARK   72  A    between atoms: _177  and  _178
REMARK   73  A    between atoms: _177  and  _180
REMARK   74  A    between atoms: _183  and  _185
REMARK   75  A    between atoms: _185  and  _186
REMARK   76  A    between atoms: _189  and  _191
REMARK   77  A    between atoms: _191  and  _192
REMARK   78  A    between atoms: _191  and  _194
REMARK   79  A    between atoms: _194  and  _195
REMARK   80  A    between atoms: _198  and  _200
REMARK   81  A    between atoms: _200  and  _201
REMARK   82  A    between atoms: _200  and  _203
REMARK   83  A    between atoms: _206  and  _208
REMARK   84  A    between atoms: _208  and  _209
REMARK   85  A    between atoms: _208  and  _211
REMARK   86  A    between atoms: _211  and  _212
REMARK   87  A    between atoms: _222  and  _224
REMARK   88  A    between atoms: _224  and  _225
REMARK   89  A    between atoms: _227  and  _229
REMARK   90  A    between atoms: _229  and  _230
REMARK   91  A    between atoms: _229  and  _232
REMARK   92  A    between atoms: _232  and  _233
REMARK   93  A    between atoms: _238  and  _239
REMARK   94  A    between atoms: _241  and  _243
REMARK   95  A    between atoms: _243  and  _244
REMARK   96  A    between atoms: _243  and  _246
REMARK   97  A    between atoms: _246  and  _247
REMARK   98  A    between atoms: _250  and  _252
REMARK   99  A    between atoms: _252  and  _253
REMARK  100  A    between atoms: _252  and  _255
REMARK  101  A    between atoms: _255  and  _256
REMARK  102  A    between atoms: _259  and  _261
REMARK  103  A    between atoms: _261  and  _262
REMARK  104  A    between atoms: _261  and  _264
REMARK  105  A    between atoms: _264  and  _265
REMARK  106  A    between atoms: _265  and  _266
REMARK  107  A    between atoms: _266  and  _267
REMARK  108  A    between atoms: _267  and  _268
REMARK  109  A    between atoms: _272  and  _274
REMARK  110  A    between atoms: _274  and  _275
REMARK  111  A    between atoms: _274  and  _277
REMARK  112  A    between atoms: _277  and  _278
REMARK  113  A    between atoms: _281  and  _283
REMARK  114  A    between atoms: _283  and  _284
REMARK  115  A    between atoms: _283  and  _286
REMARK  116  A    between atoms: _286  and  _287
REMARK  117  A    between atoms: _287  and  _288
REMARK  118  A    between atoms: _293  and  _295
REMARK  119  A    between atoms: _295  and  _296
REMARK  120  A    between atoms: _295  and  _298
REMARK  121  A    between atoms: _298  and  _299
REMARK  122  A    between atoms: _304  and  _305
REMARK  123  A    between atoms: _307  and  _309
REMARK  124  A    between atoms: _309  and  _310
REMARK  125  A    between atoms: _309  and  _312
REMARK  126  A    between atoms: _312  and  _313
REMARK  127  A    between atoms: _316  and  _318
REMARK  128  A    between atoms: _318  and  _319
REMARK  129  A    between atoms: _318  and  _321
REMARK  130  A    between atoms: _323  and  _325
REMARK  131  A    between atoms: _325  and  _326
REMARK  132  A    between atoms: _329  and  _331
REMARK  133  A    between atoms: _331  and  _332
REMARK  134  A    between atoms: _331  and  _334
REMARK  135  A    between atoms: _334  and  _335
REMARK  136  A    between atoms: _335  and  _336
REMARK  137  A    between atoms: _336  and  _337
REMARK  138  A    between atoms: _337  and  _338
REMARK  139  A    between atoms: _342  and  _344
REMARK  140  A    between atoms: _344  and  _345
REMARK  141  A    between atoms: _344  and  _347
REMARK  142  A    between atoms: _347  and  _348
REMARK  143  A    between atoms: _351  and  _353
REMARK  144  A    between atoms: _353  and  _354
REMARK  145  A    between atoms: _357  and  _359
REMARK  146  A    between atoms: _359  and  _360
REMARK  147  A    between atoms: _359  and  _362
REMARK  148  A    between atoms: _362  and  _363
REMARK  149  A    between atoms: _363  and  _486
REMARK  150  A    between atoms: _364  and  _366
REMARK  151  A    between atoms: _366  and  _367
REMARK  152  A    between atoms: _366  and  _369
REMARK  153  A    between atoms: _369  and  _370
REMARK  154  A    between atoms: _370  and  _371
REMARK  155  A    between atoms: _371  and  _372
REMARK  156  A    between atoms: _372  and  _373
REMARK  157  A    between atoms: _377  and  _379
REMARK  158  A    between atoms: _379  and  _380
REMARK  159  A    between atoms: _382  and  _384
REMARK  160  A    between atoms: _384  and  _385
REMARK  161  A    between atoms: _384  and  _387
REMARK  162  A    between atoms: _387  and  _388
REMARK  163  A    between atoms: _391  and  _393
REMARK  164  A    between atoms: _393  and  _394
REMARK  165  A    between atoms: _393  and  _396
REMARK  166  A    between atoms: _396  and  _397
REMARK  167  A    between atoms: _399  and  _401
REMARK  168  A    between atoms: _401  and  _402
REMARK  169  A    between atoms: _404  and  _406
REMARK  170  A    between atoms: _406  and  _407
REMARK  171  A    between atoms: _409  and  _411
REMARK  172  A    between atoms: _411  and  _412
REMARK  173  A    between atoms: _411  and  _414
REMARK  174  A    between atoms: _414  and  _415
REMARK  175  A    between atoms: _418  and  _420
REMARK  176  A    between atoms: _420  and  _421
REMARK  177  A    between atoms: _420  and  _423
REMARK  178  A    between atoms: _423  and  _424
REMARK  179  A    between atoms: _427  and  _429
REMARK  180  A    between atoms: _429  and  _430
REMARK  181  A    between atoms: _429  and  _432
REMARK  182  A    between atoms: _432  and  _433
REMARK  183  A    between atoms: _436  and  _438
REMARK  184  A    between atoms: _438  and  _439
REMARK  185  A    between atoms: _438  and  _441
REMARK  186  A    between atoms: _441  and  _442
REMARK  187  A    between atoms: _444  and  _446
REMARK  188  A    between atoms: _446  and  _447
REMARK  189  A    between atoms: _446  and  _449
REMARK  190  A    between atoms: _449  and  _450
REMARK  191  A    between atoms: _460  and  _462
REMARK  192  A    between atoms: _462  and  _463
REMARK  193  A    between atoms: _465  and  _467
REMARK  194  A    between atoms: _467  and  _468
REMARK  195  A    between atoms: _467  and  _470
REMARK  196  A    between atoms: _470  and  _471
REMARK  197  A    between atoms: _471  and  _472
REMARK  198  A    between atoms: _475  and  _477
REMARK  199  A    between atoms: _477  and  _478
REMARK  200  A    between atoms: _480  and  _482
REMARK  201  A    between atoms: _482  and  _483
REMARK  202  A    between atoms: _482  and  _485
REMARK  203  A    between atoms: _485  and  _486
REMARK  204  A    between atoms: _487  and  _489
REMARK  205  A    between atoms: _489  and  _490
REMARK  206  A    between atoms: _493  and  _495
REMARK  207  A    between atoms: _495  and  _496
REMARK  208  A    between atoms: _495  and  _498
REMARK  209  A    between atoms: _498  and  _499
REMARK  210  A    between atoms: _499  and  _500
REMARK  211  A    between atoms: _505  and  _507
REMARK  212  A    between atoms: _507  and  _508
REMARK  213  A    between atoms: _507  and  _510
REMARK  214  A    between atoms: _510  and  _511
REMARK  215  A    between atoms: _511  and  _512
REMARK  216  A    between atoms: _512  and  _513
REMARK  217  A    between atoms: _523  and  _524
REMARK  218  A    between atoms: _529  and  _531
REMARK  219  A    between atoms: _531  and  _532
REMARK  220  A    between atoms: _534  and  _536
REMARK  221  A    between atoms: _536  and  _537
REMARK  222  A    between atoms: _536  and  _539
REMARK  223  A    between atoms: _542  and  _544
REMARK  224  A    between atoms: _544  and  _545
REMARK  225  A    between atoms: _544  and  _547
REMARK  226  A    between atoms: _547  and  _548
REMARK  227  A    between atoms: _553  and  _554
REMARK  228  A    between atoms: _556  and  _558
REMARK  229  A    between atoms: _558  and  _559
REMARK  230  A    between atoms: _558  and  _561
REMARK  231  A    between atoms: _561  and  _562
REMARK                            x       y       z     vdW  Elec       q    Type
REMARK                         _______ _______ _______ _____ _____    ______ ____
ROOT
ATOM      1  O   HOH     1      40.948 -17.929  37.579  0.00  0.00    +0.000 OA
ENDROOT
TORSDOF 0
REMARK  Name = ../refined-set-2016/4x6m/4x6m_pocket.pdb
REMARK  231 active torsions:
REMARK  status: ('A' for Active; 'I' for Inactive)
REMARK    1  A    between atoms: _1  and  _5
REMARK    2  A    between atoms: _5  and  _6
REMARK    3  A    between atoms: _5  and  _8
REMARK    4  A    between atoms: _8  and  _9
REMARK    5  A    between atoms: _12  and  _14
REMARK    6  A    between atoms: _14  and  _15
REMARK    7  A    between atoms: _14  and  _17
REMARK    8  A    between atoms: _20  and  _22
REMARK    9  A    between atoms: _22  and  _23
REMARK   10  A    between atoms: _22  and  _25
REMARK   11  A    between atoms: _25  and  _26
REMARK   12  A    between atoms: _29  and  _31
REMARK   13  A    between atoms: _31  and  _32
REMARK   14  A    between atoms: _31  and  _34
REMARK   15  A    between atoms: _34  and  _35
REMARK   16  A    between atoms: _40  and  _42
REMARK   17  A    between atoms: _42  and  _43
REMARK   18  A    between atoms: _42  and  _45
REMARK   19  A    between atoms: _45  and  _46
REMARK   20  A    between atoms: _49  and  _51
REMARK   21  A    between atoms: _51  and  _52
REMARK   22  A    between atoms: _51  and  _54
REMARK   23  A    between atoms: _54  and  _55
REMARK   24  A    between atoms: _58  and  _60
REMARK   25  A    between atoms: _60  and  _61
REMARK   26  A    between atoms: _60  and  _63
REMARK   27  A    between atoms: _63  and  _64
REMARK   28  A    between atoms: _64  and  _65
REMARK   29  A    between atoms: _70  and  _72
REMARK   30  A    between atoms: _72  and  _73
REMARK   31  A    between atoms: _72  and  _75
REMARK   32  A    between atoms: _75  and  _76
REMARK   33  A    between atoms: _76  and  _77
REMARK   34  A    between atoms: _77  and  _78
REMARK   35  A    between atoms: _87  and  _89
REMARK   36  A    between atoms: _89  and  _90
REMARK   37  A    between atoms: _89  and  _92
REMARK   38  A    between atoms: _92  and  _93
REMARK   39  A    between atoms: _98  and  _100
REMARK   40  A    between atoms: _100  and  _101
REMARK   41  A    between atoms: _100  and  _103
REMARK   42  A    between atoms: _103  and  _104
REMARK   43  A    between atoms: _107  and  _109
REMARK   44  A    between atoms: _109  and  _110
REMARK   45  A    between atoms: _109  and  _112
REMARK   46  A    between atoms: _112  and  _113
REMARK   47  A    between atoms: _113  and  _148
REMARK   48  A    between atoms: _114  and  _116
REMARK   49  A    between atoms: _116  and  _117
REMARK   50  A    between atoms: _119  and  _121
REMARK   51  A    between atoms: _121  and  _122
REMARK   52  A    between atoms: _125  and  _127
REMARK   53  A    between atoms: _127  and  _128
REMARK   54  A    between atoms: _131  and  _133
REMARK   55  A    between atoms: _133  and  _134
REMARK   56  A    between atoms: _133  and  _136
REMARK   57  A    between atoms: _136  and  _137
REMARK   58  A    between atoms: _142  and  _144
REMARK   59  A    between atoms: _144  and  _145
REMARK   60  A    between atoms: _144  and  _147
REMARK   61  A    between atoms: _147  and  _148
REMARK   62  A    between atoms: _149  and  _151
REMARK   63  A    between atoms: _151  and  _152
REMARK   64  A    between atoms: _151  and  _154
REMARK   65  A    between atoms: _154  and  _155
REMARK   66  A    between atoms: _161  and  _163
REMARK   67  A    between atoms: _163  and  _164
REMARK   68  A    between atoms: _163  and  _166
REMARK   69  A    between atoms: _166  and  _167
REMARK   70  A    between atoms: _172  and  _173
REMARK   71  A    between atoms: _175  and  _177
REMARK   72  A    between atoms: _177  and  _178
REMARK   73  A    between atoms: _177  and  _180
REMARK   74  A    between atoms: _183  and  _185
REMARK   75  A    between atoms: _185  and  _186
REMARK   76  A    between atoms: _189  and  _191
REMARK   77  A    between atoms: _191  and  _192
REMARK   78  A    between atoms: _191  and  _194
REMARK   79  A    between atoms: _194  and  _195
REMARK   80  A    between atoms: _198  and  _200
REMARK   81  A    between atoms: _200  and  _201
REMARK   82  A    between atoms: _200  and  _203
REMARK   83  A    between atoms: _206  and  _208
REMARK   84  A    between atoms: _208  and  _209
REMARK   85  A    between atoms: _208  and  _211
REMARK   86  A    between atoms: _211  and  _212
REMARK   87  A    between atoms: _222  and  _224
REMARK   88  A    between atoms: _224  and  _225
REMARK   89  A    between atoms: _227  and  _229
REMARK   90  A    between atoms: _229  and  _230
REMARK   91  A    between atoms: _229  and  _232
REMARK   92  A    between atoms: _232  and  _233
REMARK   93  A    between atoms: _238  and  _239
REMARK   94  A    between atoms: _241  and  _243
REMARK   95  A    between atoms: _243  and  _244
REMARK   96  A    between atoms: _243  and  _246
REMARK   97  A    between atoms: _246  and  _247
REMARK   98  A    between atoms: _250  and  _252
REMARK   99  A    between atoms: _252  and  _253
REMARK  100  A    between atoms: _252  and  _255
REMARK  101  A    between atoms: _255  and  _256
REMARK  102  A    between atoms: _259  and  _261
REMARK  103  A    between atoms: _261  and  _262
REMARK  104  A    between atoms: _261  and  _264
REMARK  105  A    between atoms: _264  and  _265
REMARK  106  A    between atoms: _265  and  _266
REMARK  107  A    between atoms: _266  and  _267
REMARK  108  A    between atoms: _267  and  _268
REMARK  109  A    between atoms: _272  and  _274
REMARK  110  A    between atoms: _274  and  _275
REMARK  111  A    between atoms: _274  and  _277
REMARK  112  A    between atoms: _277  and  _278
REMARK  113  A    between atoms: _281  and  _283
REMARK  114  A    between atoms: _283  and  _284
REMARK  115  A    between atoms: _283  and  _286
REMARK  116  A    between atoms: _286  and  _287
REMARK  117  A    between atoms: _287  and  _288
REMARK  118  A    between atoms: _293  and  _295
REMARK  119  A    between atoms: _295  and  _296
REMARK  120  A    between atoms: _295  and  _298
REMARK  121  A    between atoms: _298  and  _299
REMARK  122  A    between atoms: _304  and  _305
REMARK  123  A    between atoms: _307  and  _309
REMARK  124  A    between atoms: _309  and  _310
REMARK  125  A    between atoms: _309  and  _312
REMARK  126  A    between atoms: _312  and  _313
REMARK  127  A    between atoms: _316  and  _318
REMARK  128  A    between atoms: _318  and  _319
REMARK  129  A    between atoms: _318  and  _321
REMARK  130  A    between atoms: _323  and  _325
REMARK  131  A    between atoms: _325  and  _326
REMARK  132  A    between atoms: _329  and  _331
REMARK  133  A    between atoms: _331  and  _332
REMARK  134  A    between atoms: _331  and  _334
REMARK  135  A    between atoms: _334  and  _335
REMARK  136  A    between atoms: _335  and  _336
REMARK  137  A    between atoms: _336  and  _337
REMARK  138  A    between atoms: _337  and  _338
REMARK  139  A    between atoms: _342  and  _344
REMARK  140  A    between atoms: _344  and  _345
REMARK  141  A    between atoms: _344  and  _347
REMARK  142  A    between atoms: _347  and  _348
REMARK  143  A    between atoms: _351  and  _353
REMARK  144  A    between atoms: _353  and  _354
REMARK  145  A    between atoms: _357  and  _359
REMARK  146  A    between atoms: _359  and  _360
REMARK  147  A    between atoms: _359  and  _362
REMARK  148  A    between atoms: _362  and  _363
REMARK  149  A    between atoms: _363  and  _486
REMARK  150  A    between atoms: _364  and  _366
REMARK  151  A    between atoms: _366  and  _367
REMARK  152  A    between atoms: _366  and  _369
REMARK  153  A    between atoms: _369  and  _370
REMARK  154  A    between atoms: _370  and  _371
REMARK  155  A    between atoms: _371  and  _372
REMARK  156  A    between atoms: _372  and  _373
REMARK  157  A    between atoms: _377  and  _379
REMARK  158  A    between atoms: _379  and  _380
REMARK  159  A    between atoms: _382  and  _384
REMARK  160  A    between atoms: _384  and  _385
REMARK  161  A    between atoms: _384  and  _387
REMARK  162  A    between atoms: _387  and  _388
REMARK  163  A    between atoms: _391  and  _393
REMARK  164  A    between atoms: _393  and  _394
REMARK  165  A    between atoms: _393  and  _396
REMARK  166  A    between atoms: _396  and  _397
REMARK  167  A    between atoms: _399  and  _401
REMARK  168  A    between atoms: _401  and  _402
REMARK  169  A    between atoms: _404  and  _406
REMARK  170  A    between atoms: _406  and  _407
REMARK  171  A    between atoms: _409  and  _411
REMARK  172  A    between atoms: _411  and  _412
REMARK  173  A    between atoms: _411  and  _414
REMARK  174  A    between atoms: _414  and  _415
REMARK  175  A    between atoms: _418  and  _420
REMARK  176  A    between atoms: _420  and  _421
REMARK  177  A    between atoms: _420  and  _423
REMARK  178  A    between atoms: _423  and  _424
REMARK  179  A    between atoms: _427  and  _429
REMARK  180  A    between atoms: _429  and  _430
REMARK  181  A    between atoms: _429  and  _432
REMARK  182  A    between atoms: _432  and  _433
REMARK  183  A    between atoms: _436  and  _438
REMARK  184  A    between atoms: _438  and  _439
REMARK  185  A    between atoms: _438  and  _441
REMARK  186  A    between atoms: _441  and  _442
REMARK  187  A    between atoms: _444  and  _446
REMARK  188  A    between atoms: _446  and  _447
REMARK  189  A    between atoms: _446  and  _449
REMARK  190  A    between atoms: _449  and  _450
REMARK  191  A    between atoms: _460  and  _462
REMARK  192  A    between atoms: _462  and  _463
REMARK  193  A    between atoms: _465  and  _467
REMARK  194  A    between atoms: _467  and  _468
REMARK  195  A    between atoms: _467  and  _470
REMARK  196  A    between atoms: _470  and  _471
REMARK  197  A    between atoms: _471  and  _472
REMARK  198  A    between atoms: _475  and  _477
REMARK  199  A    between atoms: _477  and  _478
REMARK  200  A    between atoms: _480  and  _482
REMARK  201  A    between atoms: _482  and  _483
REMARK  202  A    between atoms: _482  and  _485
REMARK  203  A    between atoms: _485  and  _486
REMARK  204  A    between atoms: _487  and  _489
REMARK  205  A    between atoms: _489  and  _490
REMARK  206  A    between atoms: _493  and  _495
REMARK  207  A    between atoms: _495  and  _496
REMARK  208  A    between atoms: _495  and  _498
REMARK  209  A    between atoms: _498  and  _499
REMARK  210  A    between atoms: _499  and  _500
REMARK  211  A    between atoms: _505  and  _507
REMARK  212  A    between atoms: _507  and  _508
REMARK  213  A    between atoms: _507  and  _510
REMARK  214  A    between atoms: _510  and  _511
REMARK  215  A    between atoms: _511  and  _512
REMARK  216  A    between atoms: _512  and  _513
REMARK  217  A    between atoms: _523  and  _524
REMARK  218  A    between atoms: _529  and  _531
REMARK  219  A    between atoms: _531  and  _532
REMARK  220  A    between atoms: _534  and  _536
REMARK  221  A    between atoms: _536  and  _537
REMARK  222  A    between atoms: _536  and  _539
REMARK  223  A    between atoms: _542  and  _544
REMARK  224  A    between atoms: _544  and  _545
REMARK  225  A    between atoms: _544  and  _547
REMARK  226  A    between atoms: _547  and  _548
REMARK  227  A    between atoms: _553  and  _554
REMARK  228  A    between atoms: _556  and  _558
REMARK  229  A    between atoms: _558  and  _559
REMARK  230  A    between atoms: _558  and  _561
REMARK  231  A    between atoms: _561  and  _562
REMARK                            x       y       z     vdW  Elec       q    Type
REMARK                         _______ _______ _______ _____ _____    ______ ____
ROOT
ATOM      1  O   HOH     1      40.997 -29.306  29.989  0.00  0.00    +0.000 OA
ENDROOT
TORSDOF 0
REMARK  Name = ../refined-set-2016/4x6m/4x6m_pocket.pdb
REMARK  231 active torsions:
REMARK  status: ('A' for Active; 'I' for Inactive)
REMARK    1  A    between atoms: _1  and  _5
REMARK    2  A    between atoms: _5  and  _6
REMARK    3  A    between atoms: _5  and  _8
REMARK    4  A    between atoms: _8  and  _9
REMARK    5  A    between atoms: _12  and  _14
REMARK    6  A    between atoms: _14  and  _15
REMARK    7  A    between atoms: _14  and  _17
REMARK    8  A    between atoms: _20  and  _22
REMARK    9  A    between atoms: _22  and  _23
REMARK   10  A    between atoms: _22  and  _25
REMARK   11  A    between atoms: _25  and  _26
REMARK   12  A    between atoms: _29  and  _31
REMARK   13  A    between atoms: _31  and  _32
REMARK   14  A    between atoms: _31  and  _34
REMARK   15  A    between atoms: _34  and  _35
REMARK   16  A    between atoms: _40  and  _42
REMARK   17  A    between atoms: _42  and  _43
REMARK   18  A    between atoms: _42  and  _45
REMARK   19  A    between atoms: _45  and  _46
REMARK   20  A    between atoms: _49  and  _51
REMARK   21  A    between atoms: _51  and  _52
REMARK   22  A    between atoms: _51  and  _54
REMARK   23  A    between atoms: _54  and  _55
REMARK   24  A    between atoms: _58  and  _60
REMARK   25  A    between atoms: _60  and  _61
REMARK   26  A    between atoms: _60  and  _63
REMARK   27  A    between atoms: _63  and  _64
REMARK   28  A    between atoms: _64  and  _65
REMARK   29  A    between atoms: _70  and  _72
REMARK   30  A    between atoms: _72  and  _73
REMARK   31  A    between atoms: _72  and  _75
REMARK   32  A    between atoms: _75  and  _76
REMARK   33  A    between atoms: _76  and  _77
REMARK   34  A    between atoms: _77  and  _78
REMARK   35  A    between atoms: _87  and  _89
REMARK   36  A    between atoms: _89  and  _90
REMARK   37  A    between atoms: _89  and  _92
REMARK   38  A    between atoms: _92  and  _93
REMARK   39  A    between atoms: _98  and  _100
REMARK   40  A    between atoms: _100  and  _101
REMARK   41  A    between atoms: _100  and  _103
REMARK   42  A    between atoms: _103  and  _104
REMARK   43  A    between atoms: _107  and  _109
REMARK   44  A    between atoms: _109  and  _110
REMARK   45  A    between atoms: _109  and  _112
REMARK   46  A    between atoms: _112  and  _113
REMARK   47  A    between atoms: _113  and  _148
REMARK   48  A    between atoms: _114  and  _116
REMARK   49  A    between atoms: _116  and  _117
REMARK   50  A    between atoms: _119  and  _121
REMARK   51  A    between atoms: _121  and  _122
REMARK   52  A    between atoms: _125  and  _127
REMARK   53  A    between atoms: _127  and  _128
REMARK   54  A    between atoms: _131  and  _133
REMARK   55  A    between atoms: _133  and  _134
REMARK   56  A    between atoms: _133  and  _136
REMARK   57  A    between atoms: _136  and  _137
REMARK   58  A    between atoms: _142  and  _144
REMARK   59  A    between atoms: _144  and  _145
REMARK   60  A    between atoms: _144  and  _147
REMARK   61  A    between atoms: _147  and  _148
REMARK   62  A    between atoms: _149  and  _151
REMARK   63  A    between atoms: _151  and  _152
REMARK   64  A    between atoms: _151  and  _154
REMARK   65  A    between atoms: _154  and  _155
REMARK   66  A    between atoms: _161  and  _163
REMARK   67  A    between atoms: _163  and  _164
REMARK   68  A    between atoms: _163  and  _166
REMARK   69  A    between atoms: _166  and  _167
REMARK   70  A    between atoms: _172  and  _173
REMARK   71  A    between atoms: _175  and  _177
REMARK   72  A    between atoms: _177  and  _178
REMARK   73  A    between atoms: _177  and  _180
REMARK   74  A    between atoms: _183  and  _185
REMARK   75  A    between atoms: _185  and  _186
REMARK   76  A    between atoms: _189  and  _191
REMARK   77  A    between atoms: _191  and  _192
REMARK   78  A    between atoms: _191  and  _194
REMARK   79  A    between atoms: _194  and  _195
REMARK   80  A    between atoms: _198  and  _200
REMARK   81  A    between atoms: _200  and  _201
REMARK   82  A    between atoms: _200  and  _203
REMARK   83  A    between atoms: _206  and  _208
REMARK   84  A    between atoms: _208  and  _209
REMARK   85  A    between atoms: _208  and  _211
REMARK   86  A    between atoms: _211  and  _212
REMARK   87  A    between atoms: _222  and  _224
REMARK   88  A    between atoms: _224  and  _225
REMARK   89  A    between atoms: _227  and  _229
REMARK   90  A    between atoms: _229  and  _230
REMARK   91  A    between atoms: _229  and  _232
REMARK   92  A    between atoms: _232  and  _233
REMARK   93  A    between atoms: _238  and  _239
REMARK   94  A    between atoms: _241  and  _243
REMARK   95  A    between atoms: _243  and  _244
REMARK   96  A    between atoms: _243  and  _246
REMARK   97  A    between atoms: _246  and  _247
REMARK   98  A    between atoms: _250  and  _252
REMARK   99  A    between atoms: _252  and  _253
REMARK  100  A    between atoms: _252  and  _255
REMARK  101  A    between atoms: _255  and  _256
REMARK  102  A    between atoms: _259  and  _261
REMARK  103  A    between atoms: _261  and  _262
REMARK  104  A    between atoms: _261  and  _264
REMARK  105  A    between atoms: _264  and  _265
REMARK  106  A    between atoms: _265  and  _266
REMARK  107  A    between atoms: _266  and  _267
REMARK  108  A    between atoms: _267  and  _268
REMARK  109  A    between atoms: _272  and  _274
REMARK  110  A    between atoms: _274  and  _275
REMARK  111  A    between atoms: _274  and  _277
REMARK  112  A    between atoms: _277  and  _278
REMARK  113  A    between atoms: _281  and  _283
REMARK  114  A    between atoms: _283  and  _284
REMARK  115  A    between atoms: _283  and  _286
REMARK  116  A    between atoms: _286  and  _287
REMARK  117  A    between atoms: _287  and  _288
REMARK  118  A    between atoms: _293  and  _295
REMARK  119  A    between atoms: _295  and  _296
REMARK  120  A    between atoms: _295  and  _298
REMARK  121  A    between atoms: _298  and  _299
REMARK  122  A    between atoms: _304  and  _305
REMARK  123  A    between atoms: _307  and  _309
REMARK  124  A    between atoms: _309  and  _310
REMARK  125  A    between atoms: _309  and  _312
REMARK  126  A    between atoms: _312  and  _313
REMARK  127  A    between atoms: _316  and  _318
REMARK  128  A    between atoms: _318  and  _319
REMARK  129  A    between atoms: _318  and  _321
REMARK  130  A    between atoms: _323  and  _325
REMARK  131  A    between atoms: _325  and  _326
REMARK  132  A    between atoms: _329  and  _331
REMARK  133  A    between atoms: _331  and  _332
REMARK  134  A    between atoms: _331  and  _334
REMARK  135  A    between atoms: _334  and  _335
REMARK  136  A    between atoms: _335  and  _336
REMARK  137  A    between atoms: _336  and  _337
REMARK  138  A    between atoms: _337  and  _338
REMARK  139  A    between atoms: _342  and  _344
REMARK  140  A    between atoms: _344  and  _345
REMARK  141  A    between atoms: _344  and  _347
REMARK  142  A    between atoms: _347  and  _348
REMARK  143  A    between atoms: _351  and  _353
REMARK  144  A    between atoms: _353  and  _354
REMARK  145  A    between atoms: _357  and  _359
REMARK  146  A    between atoms: _359  and  _360
REMARK  147  A    between atoms: _359  and  _362
REMARK  148  A    between atoms: _362  and  _363
REMARK  149  A    between atoms: _363  and  _486
REMARK  150  A    between atoms: _364  and  _366
REMARK  151  A    between atoms: _366  and  _367
REMARK  152  A    between atoms: _366  and  _369
REMARK  153  A    between atoms: _369  and  _370
REMARK  154  A    between atoms: _370  and  _371
REMARK  155  A    between atoms: _371  and  _372
REMARK  156  A    between atoms: _372  and  _373
REMARK  157  A    between atoms: _377  and  _379
REMARK  158  A    between atoms: _379  and  _380
REMARK  159  A    between atoms: _382  and  _384
REMARK  160  A    between atoms: _384  and  _385
REMARK  161  A    between atoms: _384  and  _387
REMARK  162  A    between atoms: _387  and  _388
REMARK  163  A    between atoms: _391  and  _393
REMARK  164  A    between atoms: _393  and  _394
REMARK  165  A    between atoms: _393  and  _396
REMARK  166  A    between atoms: _396  and  _397
REMARK  167  A    between atoms: _399  and  _401
REMARK  168  A    between atoms: _401  and  _402
REMARK  169  A    between atoms: _404  and  _406
REMARK  170  A    between atoms: _406  and  _407
REMARK  171  A    between atoms: _409  and  _411
REMARK  172  A    between atoms: _411  and  _412
REMARK  173  A    between atoms: _411  and  _414
REMARK  174  A    between atoms: _414  and  _415
REMARK  175  A    between atoms: _418  and  _420
REMARK  176  A    between atoms: _420  and  _421
REMARK  177  A    between atoms: _420  and  _423
REMARK  178  A    between atoms: _423  and  _424
REMARK  179  A    between atoms: _427  and  _429
REMARK  180  A    between atoms: _429  and  _430
REMARK  181  A    between atoms: _429  and  _432
REMARK  182  A    between atoms: _432  and  _433
REMARK  183  A    between atoms: _436  and  _438
REMARK  184  A    between atoms: _438  and  _439
REMARK  185  A    between atoms: _438  and  _441
REMARK  186  A    between atoms: _441  and  _442
REMARK  187  A    between atoms: _444  and  _446
REMARK  188  A    between atoms: _446  and  _447
REMARK  189  A    between atoms: _446  and  _449
REMARK  190  A    between atoms: _449  and  _450
REMARK  191  A    between atoms: _460  and  _462
REMARK  192  A    between atoms: _462  and  _463
REMARK  193  A    between atoms: _465  and  _467
REMARK  194  A    between atoms: _467  and  _468
REMARK  195  A    between atoms: _467  and  _470
REMARK  196  A    between atoms: _470  and  _471
REMARK  197  A    between atoms: _471  and  _472
REMARK  198  A    between atoms: _475  and  _477
REMARK  199  A    between atoms: _477  and  _478
REMARK  200  A    between atoms: _480  and  _482
REMARK  201  A    between atoms: _482  and  _483
REMARK  202  A    between atoms: _482  and  _485
REMARK  203  A    between atoms: _485  and  _486
REMARK  204  A    between atoms: _487  and  _489
REMARK  205  A    between atoms: _489  and  _490
REMARK  206  A    between atoms: _493  and  _495
REMARK  207  A    between atoms: _495  and  _496
REMARK  208  A    between atoms: _495  and  _498
REMARK  209  A    between atoms: _498  and  _499
REMARK  210  A    between atoms: _499  and  _500
REMARK  211  A    between atoms: _505  and  _507
REMARK  212  A    between atoms: _507  and  _508
REMARK  213  A    between atoms: _507  and  _510
REMARK  214  A    between atoms: _510  and  _511
REMARK  215  A    between atoms: _511  and  _512
REMARK  216  A    between atoms: _512  and  _513
REMARK  217  A    between atoms: _523  and  _524
REMARK  218  A    between atoms: _529  and  _531
REMARK  219  A    between atoms: _531  and  _532
REMARK  220  A    between atoms: _534  and  _536
REMARK  221  A    between atoms: _536  and  _537
REMARK  222  A    between atoms: _536  and  _539
REMARK  223  A    between atoms: _542  and  _544
REMARK  224  A    between atoms: _544  and  _545
REMARK  225  A    between atoms: _544  and  _547
REMARK  226  A    between atoms: _547  and  _548
REMARK  227  A    between atoms: _553  and  _554
REMARK  228  A    between atoms: _556  and  _558
REMARK  229  A    between atoms: _558  and  _559
REMARK  230  A    between atoms: _558  and  _561
REMARK  231  A    between atoms: _561  and  _562
REMARK                            x       y       z     vdW  Elec       q    Type
REMARK                         _______ _______ _______ _____ _____    ______ ____
ROOT
ATOM      1  O   HOH     1      35.423 -15.305  36.954  0.00  0.00    +0.000 OA
ENDROOT
TORSDOF 0
REMARK  Name = ../refined-set-2016/4x6m/4x6m_pocket.pdb
REMARK  231 active torsions:
REMARK  status: ('A' for Active; 'I' for Inactive)
REMARK    1  A    between atoms: _1  and  _5
REMARK    2  A    between atoms: _5  and  _6
REMARK    3  A    between atoms: _5  and  _8
REMARK    4  A    between atoms: _8  and  _9
REMARK    5  A    between atoms: _12  and  _14
REMARK    6  A    between atoms: _14  and  _15
REMARK    7  A    between atoms: _14  and  _17
REMARK    8  A    between atoms: _20  and  _22
REMARK    9  A    between atoms: _22  and  _23
REMARK   10  A    between atoms: _22  and  _25
REMARK   11  A    between atoms: _25  and  _26
REMARK   12  A    between atoms: _29  and  _31
REMARK   13  A    between atoms: _31  and  _32
REMARK   14  A    between atoms: _31  and  _34
REMARK   15  A    between atoms: _34  and  _35
REMARK   16  A    between atoms: _40  and  _42
REMARK   17  A    between atoms: _42  and  _43
REMARK   18  A    between atoms: _42  and  _45
REMARK   19  A    between atoms: _45  and  _46
REMARK   20  A    between atoms: _49  and  _51
REMARK   21  A    between atoms: _51  and  _52
REMARK   22  A    between atoms: _51  and  _54
REMARK   23  A    between atoms: _54  and  _55
REMARK   24  A    between atoms: _58  and  _60
REMARK   25  A    between atoms: _60  and  _61
REMARK   26  A    between atoms: _60  and  _63
REMARK   27  A    between atoms: _63  and  _64
REMARK   28  A    between atoms: _64  and  _65
REMARK   29  A    between atoms: _70  and  _72
REMARK   30  A    between atoms: _72  and  _73
REMARK   31  A    between atoms: _72  and  _75
REMARK   32  A    between atoms: _75  and  _76
REMARK   33  A    between atoms: _76  and  _77
REMARK   34  A    between atoms: _77  and  _78
REMARK   35  A    between atoms: _87  and  _89
REMARK   36  A    between atoms: _89  and  _90
REMARK   37  A    between atoms: _89  and  _92
REMARK   38  A    between atoms: _92  and  _93
REMARK   39  A    between atoms: _98  and  _100
REMARK   40  A    between atoms: _100  and  _101
REMARK   41  A    between atoms: _100  and  _103
REMARK   42  A    between atoms: _103  and  _104
REMARK   43  A    between atoms: _107  and  _109
REMARK   44  A    between atoms: _109  and  _110
REMARK   45  A    between atoms: _109  and  _112
REMARK   46  A    between atoms: _112  and  _113
REMARK   47  A    between atoms: _113  and  _148
REMARK   48  A    between atoms: _114  and  _116
REMARK   49  A    between atoms: _116  and  _117
REMARK   50  A    between atoms: _119  and  _121
REMARK   51  A    between atoms: _121  and  _122
REMARK   52  A    between atoms: _125  and  _127
REMARK   53  A    between atoms: _127  and  _128
REMARK   54  A    between atoms: _131  and  _133
REMARK   55  A    between atoms: _133  and  _134
REMARK   56  A    between atoms: _133  and  _136
REMARK   57  A    between atoms: _136  and  _137
REMARK   58  A    between atoms: _142  and  _144
REMARK   59  A    between atoms: _144  and  _145
REMARK   60  A    between atoms: _144  and  _147
REMARK   61  A    between atoms: _147  and  _148
REMARK   62  A    between atoms: _149  and  _151
REMARK   63  A    between atoms: _151  and  _152
REMARK   64  A    between atoms: _151  and  _154
REMARK   65  A    between atoms: _154  and  _155
REMARK   66  A    between atoms: _161  and  _163
REMARK   67  A    between atoms: _163  and  _164
REMARK   68  A    between atoms: _163  and  _166
REMARK   69  A    between atoms: _166  and  _167
REMARK   70  A    between atoms: _172  and  _173
REMARK   71  A    between atoms: _175  and  _177
REMARK   72  A    between atoms: _177  and  _178
REMARK   73  A    between atoms: _177  and  _180
REMARK   74  A    between atoms: _183  and  _185
REMARK   75  A    between atoms: _185  and  _186
REMARK   76  A    between atoms: _189  and  _191
REMARK   77  A    between atoms: _191  and  _192
REMARK   78  A    between atoms: _191  and  _194
REMARK   79  A    between atoms: _194  and  _195
REMARK   80  A    between atoms: _198  and  _200
REMARK   81  A    between atoms: _200  and  _201
REMARK   82  A    between atoms: _200  and  _203
REMARK   83  A    between atoms: _206  and  _208
REMARK   84  A    between atoms: _208  and  _209
REMARK   85  A    between atoms: _208  and  _211
REMARK   86  A    between atoms: _211  and  _212
REMARK   87  A    between atoms: _222  and  _224
REMARK   88  A    between atoms: _224  and  _225
REMARK   89  A    between atoms: _227  and  _229
REMARK   90  A    between atoms: _229  and  _230
REMARK   91  A    between atoms: _229  and  _232
REMARK   92  A    between atoms: _232  and  _233
REMARK   93  A    between atoms: _238  and  _239
REMARK   94  A    between atoms: _241  and  _243
REMARK   95  A    between atoms: _243  and  _244
REMARK   96  A    between atoms: _243  and  _246
REMARK   97  A    between atoms: _246  and  _247
REMARK   98  A    between atoms: _250  and  _252
REMARK   99  A    between atoms: _252  and  _253
REMARK  100  A    between atoms: _252  and  _255
REMARK  101  A    between atoms: _255  and  _256
REMARK  102  A    between atoms: _259  and  _261
REMARK  103  A    between atoms: _261  and  _262
REMARK  104  A    between atoms: _261  and  _264
REMARK  105  A    between atoms: _264  and  _265
REMARK  106  A    between atoms: _265  and  _266
REMARK  107  A    between atoms: _266  and  _267
REMARK  108  A    between atoms: _267  and  _268
REMARK  109  A    between atoms: _272  and  _274
REMARK  110  A    between atoms: _274  and  _275
REMARK  111  A    between atoms: _274  and  _277
REMARK  112  A    between atoms: _277  and  _278
REMARK  113  A    between atoms: _281  and  _283
REMARK  114  A    between atoms: _283  and  _284
REMARK  115  A    between atoms: _283  and  _286
REMARK  116  A    between atoms: _286  and  _287
REMARK  117  A    between atoms: _287  and  _288
REMARK  118  A    between atoms: _293  and  _295
REMARK  119  A    between atoms: _295  and  _296
REMARK  120  A    between atoms: _295  and  _298
REMARK  121  A    between atoms: _298  and  _299
REMARK  122  A    between atoms: _304  and  _305
REMARK  123  A    between atoms: _307  and  _309
REMARK  124  A    between atoms: _309  and  _310
REMARK  125  A    between atoms: _309  and  _312
REMARK  126  A    between atoms: _312  and  _313
REMARK  127  A    between atoms: _316  and  _318
REMARK  128  A    between atoms: _318  and  _319
REMARK  129  A    between atoms: _318  and  _321
REMARK  130  A    between atoms: _323  and  _325
REMARK  131  A    between atoms: _325  and  _326
REMARK  132  A    between atoms: _329  and  _331
REMARK  133  A    between atoms: _331  and  _332
REMARK  134  A    between atoms: _331  and  _334
REMARK  135  A    between atoms: _334  and  _335
REMARK  136  A    between atoms: _335  and  _336
REMARK  137  A    between atoms: _336  and  _337
REMARK  138  A    between atoms: _337  and  _338
REMARK  139  A    between atoms: _342  and  _344
REMARK  140  A    between atoms: _344  and  _345
REMARK  141  A    between atoms: _344  and  _347
REMARK  142  A    between atoms: _347  and  _348
REMARK  143  A    between atoms: _351  and  _353
REMARK  144  A    between atoms: _353  and  _354
REMARK  145  A    between atoms: _357  and  _359
REMARK  146  A    between atoms: _359  and  _360
REMARK  147  A    between atoms: _359  and  _362
REMARK  148  A    between atoms: _362  and  _363
REMARK  149  A    between atoms: _363  and  _486
REMARK  150  A    between atoms: _364  and  _366
REMARK  151  A    between atoms: _366  and  _367
REMARK  152  A    between atoms: _366  and  _369
REMARK  153  A    between atoms: _369  and  _370
REMARK  154  A    between atoms: _370  and  _371
REMARK  155  A    between atoms: _371  and  _372
REMARK  156  A    between atoms: _372  and  _373
REMARK  157  A    between atoms: _377  and  _379
REMARK  158  A    between atoms: _379  and  _380
REMARK  159  A    between atoms: _382  and  _384
REMARK  160  A    between atoms: _384  and  _385
REMARK  161  A    between atoms: _384  and  _387
REMARK  162  A    between atoms: _387  and  _388
REMARK  163  A    between atoms: _391  and  _393
REMARK  164  A    between atoms: _393  and  _394
REMARK  165  A    between atoms: _393  and  _396
REMARK  166  A    between atoms: _396  and  _397
REMARK  167  A    between atoms: _399  and  _401
REMARK  168  A    between atoms: _401  and  _402
REMARK  169  A    between atoms: _404  and  _406
REMARK  170  A    between atoms: _406  and  _407
REMARK  171  A    between atoms: _409  and  _411
REMARK  172  A    between atoms: _411  and  _412
REMARK  173  A    between atoms: _411  and  _414
REMARK  174  A    between atoms: _414  and  _415
REMARK  175  A    between atoms: _418  and  _420
REMARK  176  A    between atoms: _420  and  _421
REMARK  177  A    between atoms: _420  and  _423
REMARK  178  A    between atoms: _423  and  _424
REMARK  179  A    between atoms: _427  and  _429
REMARK  180  A    between atoms: _429  and  _430
REMARK  181  A    between atoms: _429  and  _432
REMARK  182  A    between atoms: _432  and  _433
REMARK  183  A    between atoms: _436  and  _438
REMARK  184  A    between atoms: _438  and  _439
REMARK  185  A    between atoms: _438  and  _441
REMARK  186  A    between atoms: _441  and  _442
REMARK  187  A    between atoms: _444  and  _446
REMARK  188  A    between atoms: _446  and  _447
REMARK  189  A    between atoms: _446  and  _449
REMARK  190  A    between atoms: _449  and  _450
REMARK  191  A    between atoms: _460  and  _462
REMARK  192  A    between atoms: _462  and  _463
REMARK  193  A    between atoms: _465  and  _467
REMARK  194  A    between atoms: _467  and  _468
REMARK  195  A    between atoms: _467  and  _470
REMARK  196  A    between atoms: _470  and  _471
REMARK  197  A    between atoms: _471  and  _472
REMARK  198  A    between atoms: _475  and  _477
REMARK  199  A    between atoms: _477  and  _478
REMARK  200  A    between atoms: _480  and  _482
REMARK  201  A    between atoms: _482  and  _483
REMARK  202  A    between atoms: _482  and  _485
REMARK  203  A    between atoms: _485  and  _486
REMARK  204  A    between atoms: _487  and  _489
REMARK  205  A    between atoms: _489  and  _490
REMARK  206  A    between atoms: _493  and  _495
REMARK  207  A    between atoms: _495  and  _496
REMARK  208  A    between atoms: _495  and  _498
REMARK  209  A    between atoms: _498  and  _499
REMARK  210  A    between atoms: _499  and  _500
REMARK  211  A    between atoms: _505  and  _507
REMARK  212  A    between atoms: _507  and  _508
REMARK  213  A    between atoms: _507  and  _510
REMARK  214  A    between atoms: _510  and  _511
REMARK  215  A    between atoms: _511  and  _512
REMARK  216  A    between atoms: _512  and  _513
REMARK  217  A    between atoms: _523  and  _524
REMARK  218  A    between atoms: _529  and  _531
REMARK  219  A    between atoms: _531  and  _532
REMARK  220  A    between atoms: _534  and  _536
REMARK  221  A    between atoms: _536  and  _537
REMARK  222  A    between atoms: _536  and  _539
REMARK  223  A    between atoms: _542  and  _544
REMARK  224  A    between atoms: _544  and  _545
REMARK  225  A    between atoms: _544  and  _547
REMARK  226  A    between atoms: _547  and  _548
REMARK  227  A    between atoms: _553  and  _554
REMARK  228  A    between atoms: _556  and  _558
REMARK  229  A    between atoms: _558  and  _559
REMARK  230  A    between atoms: _558  and  _561
REMARK  231  A    between atoms: _561  and  _562
REMARK                            x       y       z     vdW  Elec       q    Type
REMARK                         _______ _______ _______ _____ _____    ______ ____
ROOT
ATOM      1  O   HOH     1      51.064 -19.309  32.520  0.00  0.00    +0.000 OA
ENDROOT
TORSDOF 0
REMARK  Name = ../refined-set-2016/4x6m/4x6m_pocket.pdb
REMARK  231 active torsions:
REMARK  status: ('A' for Active; 'I' for Inactive)
REMARK    1  A    between atoms: _1  and  _5
REMARK    2  A    between atoms: _5  and  _6
REMARK    3  A    between atoms: _5  and  _8
REMARK    4  A    between atoms: _8  and  _9
REMARK    5  A    between atoms: _12  and  _14
REMARK    6  A    between atoms: _14  and  _15
REMARK    7  A    between atoms: _14  and  _17
REMARK    8  A    between atoms: _20  and  _22
REMARK    9  A    between atoms: _22  and  _23
REMARK   10  A    between atoms: _22  and  _25
REMARK   11  A    between atoms: _25  and  _26
REMARK   12  A    between atoms: _29  and  _31
REMARK   13  A    between atoms: _31  and  _32
REMARK   14  A    between atoms: _31  and  _34
REMARK   15  A    between atoms: _34  and  _35
REMARK   16  A    between atoms: _40  and  _42
REMARK   17  A    between atoms: _42  and  _43
REMARK   18  A    between atoms: _42  and  _45
REMARK   19  A    between atoms: _45  and  _46
REMARK   20  A    between atoms: _49  and  _51
REMARK   21  A    between atoms: _51  and  _52
REMARK   22  A    between atoms: _51  and  _54
REMARK   23  A    between atoms: _54  and  _55
REMARK   24  A    between atoms: _58  and  _60
REMARK   25  A    between atoms: _60  and  _61
REMARK   26  A    between atoms: _60  and  _63
REMARK   27  A    between atoms: _63  and  _64
REMARK   28  A    between atoms: _64  and  _65
REMARK   29  A    between atoms: _70  and  _72
REMARK   30  A    between atoms: _72  and  _73
REMARK   31  A    between atoms: _72  and  _75
REMARK   32  A    between atoms: _75  and  _76
REMARK   33  A    between atoms: _76  and  _77
REMARK   34  A    between atoms: _77  and  _78
REMARK   35  A    between atoms: _87  and  _89
REMARK   36  A    between atoms: _89  and  _90
REMARK   37  A    between atoms: _89  and  _92
REMARK   38  A    between atoms: _92  and  _93
REMARK   39  A    between atoms: _98  and  _100
REMARK   40  A    between atoms: _100  and  _101
REMARK   41  A    between atoms: _100  and  _103
REMARK   42  A    between atoms: _103  and  _104
REMARK   43  A    between atoms: _107  and  _109
REMARK   44  A    between atoms: _109  and  _110
REMARK   45  A    between atoms: _109  and  _112
REMARK   46  A    between atoms: _112  and  _113
REMARK   47  A    between atoms: _113  and  _148
REMARK   48  A    between atoms: _114  and  _116
REMARK   49  A    between atoms: _116  and  _117
REMARK   50  A    between atoms: _119  and  _121
REMARK   51  A    between atoms: _121  and  _122
REMARK   52  A    between atoms: _125  and  _127
REMARK   53  A    between atoms: _127  and  _128
REMARK   54  A    between atoms: _131  and  _133
REMARK   55  A    between atoms: _133  and  _134
REMARK   56  A    between atoms: _133  and  _136
REMARK   57  A    between atoms: _136  and  _137
REMARK   58  A    between atoms: _142  and  _144
REMARK   59  A    between atoms: _144  and  _145
REMARK   60  A    between atoms: _144  and  _147
REMARK   61  A    between atoms: _147  and  _148
REMARK   62  A    between atoms: _149  and  _151
REMARK   63  A    between atoms: _151  and  _152
REMARK   64  A    between atoms: _151  and  _154
REMARK   65  A    between atoms: _154  and  _155
REMARK   66  A    between atoms: _161  and  _163
REMARK   67  A    between atoms: _163  and  _164
REMARK   68  A    between atoms: _163  and  _166
REMARK   69  A    between atoms: _166  and  _167
REMARK   70  A    between atoms: _172  and  _173
REMARK   71  A    between atoms: _175  and  _177
REMARK   72  A    between atoms: _177  and  _178
REMARK   73  A    between atoms: _177  and  _180
REMARK   74  A    between atoms: _183  and  _185
REMARK   75  A    between atoms: _185  and  _186
REMARK   76  A    between atoms: _189  and  _191
REMARK   77  A    between atoms: _191  and  _192
REMARK   78  A    between atoms: _191  and  _194
REMARK   79  A    between atoms: _194  and  _195
REMARK   80  A    between atoms: _198  and  _200
REMARK   81  A    between atoms: _200  and  _201
REMARK   82  A    between atoms: _200  and  _203
REMARK   83  A    between atoms: _206  and  _208
REMARK   84  A    between atoms: _208  and  _209
REMARK   85  A    between atoms: _208  and  _211
REMARK   86  A    between atoms: _211  and  _212
REMARK   87  A    between atoms: _222  and  _224
REMARK   88  A    between atoms: _224  and  _225
REMARK   89  A    between atoms: _227  and  _229
REMARK   90  A    between atoms: _229  and  _230
REMARK   91  A    between atoms: _229  and  _232
REMARK   92  A    between atoms: _232  and  _233
REMARK   93  A    between atoms: _238  and  _239
REMARK   94  A    between atoms: _241  and  _243
REMARK   95  A    between atoms: _243  and  _244
REMARK   96  A    between atoms: _243  and  _246
REMARK   97  A    between atoms: _246  and  _247
REMARK   98  A    between atoms: _250  and  _252
REMARK   99  A    between atoms: _252  and  _253
REMARK  100  A    between atoms: _252  and  _255
REMARK  101  A    between atoms: _255  and  _256
REMARK  102  A    between atoms: _259  and  _261
REMARK  103  A    between atoms: _261  and  _262
REMARK  104  A    between atoms: _261  and  _264
REMARK  105  A    between atoms: _264  and  _265
REMARK  106  A    between atoms: _265  and  _266
REMARK  107  A    between atoms: _266  and  _267
REMARK  108  A    between atoms: _267  and  _268
REMARK  109  A    between atoms: _272  and  _274
REMARK  110  A    between atoms: _274  and  _275
REMARK  111  A    between atoms: _274  and  _277
REMARK  112  A    between atoms: _277  and  _278
REMARK  113  A    between atoms: _281  and  _283
REMARK  114  A    between atoms: _283  and  _284
REMARK  115  A    between atoms: _283  and  _286
REMARK  116  A    between atoms: _286  and  _287
REMARK  117  A    between atoms: _287  and  _288
REMARK  118  A    between atoms: _293  and  _295
REMARK  119  A    between atoms: _295  and  _296
REMARK  120  A    between atoms: _295  and  _298
REMARK  121  A    between atoms: _298  and  _299
REMARK  122  A    between atoms: _304  and  _305
REMARK  123  A    between atoms: _307  and  _309
REMARK  124  A    between atoms: _309  and  _310
REMARK  125  A    between atoms: _309  and  _312
REMARK  126  A    between atoms: _312  and  _313
REMARK  127  A    between atoms: _316  and  _318
REMARK  128  A    between atoms: _318  and  _319
REMARK  129  A    between atoms: _318  and  _321
REMARK  130  A    between atoms: _323  and  _325
REMARK  131  A    between atoms: _325  and  _326
REMARK  132  A    between atoms: _329  and  _331
REMARK  133  A    between atoms: _331  and  _332
REMARK  134  A    between atoms: _331  and  _334
REMARK  135  A    between atoms: _334  and  _335
REMARK  136  A    between atoms: _335  and  _336
REMARK  137  A    between atoms: _336  and  _337
REMARK  138  A    between atoms: _337  and  _338
REMARK  139  A    between atoms: _342  and  _344
REMARK  140  A    between atoms: _344  and  _345
REMARK  141  A    between atoms: _344  and  _347
REMARK  142  A    between atoms: _347  and  _348
REMARK  143  A    between atoms: _351  and  _353
REMARK  144  A    between atoms: _353  and  _354
REMARK  145  A    between atoms: _357  and  _359
REMARK  146  A    between atoms: _359  and  _360
REMARK  147  A    between atoms: _359  and  _362
REMARK  148  A    between atoms: _362  and  _363
REMARK  149  A    between atoms: _363  and  _486
REMARK  150  A    between atoms: _364  and  _366
REMARK  151  A    between atoms: _366  and  _367
REMARK  152  A    between atoms: _366  and  _369
REMARK  153  A    between atoms: _369  and  _370
REMARK  154  A    between atoms: _370  and  _371
REMARK  155  A    between atoms: _371  and  _372
REMARK  156  A    between atoms: _372  and  _373
REMARK  157  A    between atoms: _377  and  _379
REMARK  158  A    between atoms: _379  and  _380
REMARK  159  A    between atoms: _382  and  _384
REMARK  160  A    between atoms: _384  and  _385
REMARK  161  A    between atoms: _384  and  _387
REMARK  162  A    between atoms: _387  and  _388
REMARK  163  A    between atoms: _391  and  _393
REMARK  164  A    between atoms: _393  and  _394
REMARK  165  A    between atoms: _393  and  _396
REMARK  166  A    between atoms: _396  and  _397
REMARK  167  A    between atoms: _399  and  _401
REMARK  168  A    between atoms: _401  and  _402
REMARK  169  A    between atoms: _404  and  _406
REMARK  170  A    between atoms: _406  and  _407
REMARK  171  A    between atoms: _409  and  _411
REMARK  172  A    between atoms: _411  and  _412
REMARK  173  A    between atoms: _411  and  _414
REMARK  174  A    between atoms: _414  and  _415
REMARK  175  A    between atoms: _418  and  _420
REMARK  176  A    between atoms: _420  and  _421
REMARK  177  A    between atoms: _420  and  _423
REMARK  178  A    between atoms: _423  and  _424
REMARK  179  A    between atoms: _427  and  _429
REMARK  180  A    between atoms: _429  and  _430
REMARK  181  A    between atoms: _429  and  _432
REMARK  182  A    between atoms: _432  and  _433
REMARK  183  A    between atoms: _436  and  _438
REMARK  184  A    between atoms: _438  and  _439
REMARK  185  A    between atoms: _438  and  _441
REMARK  186  A    between atoms: _441  and  _442
REMARK  187  A    between atoms: _444  and  _446
REMARK  188  A    between atoms: _446  and  _447
REMARK  189  A    between atoms: _446  and  _449
REMARK  190  A    between atoms: _449  and  _450
REMARK  191  A    between atoms: _460  and  _462
REMARK  192  A    between atoms: _462  and  _463
REMARK  193  A    between atoms: _465  and  _467
REMARK  194  A    between atoms: _467  and  _468
REMARK  195  A    between atoms: _467  and  _470
REMARK  196  A    between atoms: _470  and  _471
REMARK  197  A    between atoms: _471  and  _472
REMARK  198  A    between atoms: _475  and  _477
REMARK  199  A    between atoms: _477  and  _478
REMARK  200  A    between atoms: _480  and  _482
REMARK  201  A    between atoms: _482  and  _483
REMARK  202  A    between atoms: _482  and  _485
REMARK  203  A    between atoms: _485  and  _486
REMARK  204  A    between atoms: _487  and  _489
REMARK  205  A    between atoms: _489  and  _490
REMARK  206  A    between atoms: _493  and  _495
REMARK  207  A    between atoms: _495  and  _496
REMARK  208  A    between atoms: _495  and  _498
REMARK  209  A    between atoms: _498  and  _499
REMARK  210  A    between atoms: _499  and  _500
REMARK  211  A    between atoms: _505  and  _507
REMARK  212  A    between atoms: _507  and  _508
REMARK  213  A    between atoms: _507  and  _510
REMARK  214  A    between atoms: _510  and  _511
REMARK  215  A    between atoms: _511  and  _512
REMARK  216  A    between atoms: _512  and  _513
REMARK  217  A    between atoms: _523  and  _524
REMARK  218  A    between atoms: _529  and  _531
REMARK  219  A    between atoms: _531  and  _532
REMARK  220  A    between atoms: _534  and  _536
REMARK  221  A    between atoms: _536  and  _537
REMARK  222  A    between atoms: _536  and  _539
REMARK  223  A    between atoms: _542  and  _544
REMARK  224  A    between atoms: _544  and  _545
REMARK  225  A    between atoms: _544  and  _547
REMARK  226  A    between atoms: _547  and  _548
REMARK  227  A    between atoms: _553  and  _554
REMARK  228  A    between atoms: _556  and  _558
REMARK  229  A    between atoms: _558  and  _559
REMARK  230  A    between atoms: _558  and  _561
REMARK  231  A    between atoms: _561  and  _562
REMARK                            x       y       z     vdW  Elec       q    Type
REMARK                         _______ _______ _______ _____ _____    ______ ____
ROOT
ATOM      1  O   HOH     1      41.787  -9.281  22.546  0.00  0.00    +0.000 OA
ENDROOT
TORSDOF 0
REMARK  Name = ../refined-set-2016/4x6m/4x6m_pocket.pdb
REMARK  231 active torsions:
REMARK  status: ('A' for Active; 'I' for Inactive)
REMARK    1  A    between atoms: _1  and  _5
REMARK    2  A    between atoms: _5  and  _6
REMARK    3  A    between atoms: _5  and  _8
REMARK    4  A    between atoms: _8  and  _9
REMARK    5  A    between atoms: _12  and  _14
REMARK    6  A    between atoms: _14  and  _15
REMARK    7  A    between atoms: _14  and  _17
REMARK    8  A    between atoms: _20  and  _22
REMARK    9  A    between atoms: _22  and  _23
REMARK   10  A    between atoms: _22  and  _25
REMARK   11  A    between atoms: _25  and  _26
REMARK   12  A    between atoms: _29  and  _31
REMARK   13  A    between atoms: _31  and  _32
REMARK   14  A    between atoms: _31  and  _34
REMARK   15  A    between atoms: _34  and  _35
REMARK   16  A    between atoms: _40  and  _42
REMARK   17  A    between atoms: _42  and  _43
REMARK   18  A    between atoms: _42  and  _45
REMARK   19  A    between atoms: _45  and  _46
REMARK   20  A    between atoms: _49  and  _51
REMARK   21  A    between atoms: _51  and  _52
REMARK   22  A    between atoms: _51  and  _54
REMARK   23  A    between atoms: _54  and  _55
REMARK   24  A    between atoms: _58  and  _60
REMARK   25  A    between atoms: _60  and  _61
REMARK   26  A    between atoms: _60  and  _63
REMARK   27  A    between atoms: _63  and  _64
REMARK   28  A    between atoms: _64  and  _65
REMARK   29  A    between atoms: _70  and  _72
REMARK   30  A    between atoms: _72  and  _73
REMARK   31  A    between atoms: _72  and  _75
REMARK   32  A    between atoms: _75  and  _76
REMARK   33  A    between atoms: _76  and  _77
REMARK   34  A    between atoms: _77  and  _78
REMARK   35  A    between atoms: _87  and  _89
REMARK   36  A    between atoms: _89  and  _90
REMARK   37  A    between atoms: _89  and  _92
REMARK   38  A    between atoms: _92  and  _93
REMARK   39  A    between atoms: _98  and  _100
REMARK   40  A    between atoms: _100  and  _101
REMARK   41  A    between atoms: _100  and  _103
REMARK   42  A    between atoms: _103  and  _104
REMARK   43  A    between atoms: _107  and  _109
REMARK   44  A    between atoms: _109  and  _110
REMARK   45  A    between atoms: _109  and  _112
REMARK   46  A    between atoms: _112  and  _113
REMARK   47  A    between atoms: _113  and  _148
REMARK   48  A    between atoms: _114  and  _116
REMARK   49  A    between atoms: _116  and  _117
REMARK   50  A    between atoms: _119  and  _121
REMARK   51  A    between atoms: _121  and  _122
REMARK   52  A    between atoms: _125  and  _127
REMARK   53  A    between atoms: _127  and  _128
REMARK   54  A    between atoms: _131  and  _133
REMARK   55  A    between atoms: _133  and  _134
REMARK   56  A    between atoms: _133  and  _136
REMARK   57  A    between atoms: _136  and  _137
REMARK   58  A    between atoms: _142  and  _144
REMARK   59  A    between atoms: _144  and  _145
REMARK   60  A    between atoms: _144  and  _147
REMARK   61  A    between atoms: _147  and  _148
REMARK   62  A    between atoms: _149  and  _151
REMARK   63  A    between atoms: _151  and  _152
REMARK   64  A    between atoms: _151  and  _154
REMARK   65  A    between atoms: _154  and  _155
REMARK   66  A    between atoms: _161  and  _163
REMARK   67  A    between atoms: _163  and  _164
REMARK   68  A    between atoms: _163  and  _166
REMARK   69  A    between atoms: _166  and  _167
REMARK   70  A    between atoms: _172  and  _173
REMARK   71  A    between atoms: _175  and  _177
REMARK   72  A    between atoms: _177  and  _178
REMARK   73  A    between atoms: _177  and  _180
REMARK   74  A    between atoms: _183  and  _185
REMARK   75  A    between atoms: _185  and  _186
REMARK   76  A    between atoms: _189  and  _191
REMARK   77  A    between atoms: _191  and  _192
REMARK   78  A    between atoms: _191  and  _194
REMARK   79  A    between atoms: _194  and  _195
REMARK   80  A    between atoms: _198  and  _200
REMARK   81  A    between atoms: _200  and  _201
REMARK   82  A    between atoms: _200  and  _203
REMARK   83  A    between atoms: _206  and  _208
REMARK   84  A    between atoms: _208  and  _209
REMARK   85  A    between atoms: _208  and  _211
REMARK   86  A    between atoms: _211  and  _212
REMARK   87  A    between atoms: _222  and  _224
REMARK   88  A    between atoms: _224  and  _225
REMARK   89  A    between atoms: _227  and  _229
REMARK   90  A    between atoms: _229  and  _230
REMARK   91  A    between atoms: _229  and  _232
REMARK   92  A    between atoms: _232  and  _233
REMARK   93  A    between atoms: _238  and  _239
REMARK   94  A    between atoms: _241  and  _243
REMARK   95  A    between atoms: _243  and  _244
REMARK   96  A    between atoms: _243  and  _246
REMARK   97  A    between atoms: _246  and  _247
REMARK   98  A    between atoms: _250  and  _252
REMARK   99  A    between atoms: _252  and  _253
REMARK  100  A    between atoms: _252  and  _255
REMARK  101  A    between atoms: _255  and  _256
REMARK  102  A    between atoms: _259  and  _261
REMARK  103  A    between atoms: _261  and  _262
REMARK  104  A    between atoms: _261  and  _264
REMARK  105  A    between atoms: _264  and  _265
REMARK  106  A    between atoms: _265  and  _266
REMARK  107  A    between atoms: _266  and  _267
REMARK  108  A    between atoms: _267  and  _268
REMARK  109  A    between atoms: _272  and  _274
REMARK  110  A    between atoms: _274  and  _275
REMARK  111  A    between atoms: _274  and  _277
REMARK  112  A    between atoms: _277  and  _278
REMARK  113  A    between atoms: _281  and  _283
REMARK  114  A    between atoms: _283  and  _284
REMARK  115  A    between atoms: _283  and  _286
REMARK  116  A    between atoms: _286  and  _287
REMARK  117  A    between atoms: _287  and  _288
REMARK  118  A    between atoms: _293  and  _295
REMARK  119  A    between atoms: _295  and  _296
REMARK  120  A    between atoms: _295  and  _298
REMARK  121  A    between atoms: _298  and  _299
REMARK  122  A    between atoms: _304  and  _305
REMARK  123  A    between atoms: _307  and  _309
REMARK  124  A    between atoms: _309  and  _310
REMARK  125  A    between atoms: _309  and  _312
REMARK  126  A    between atoms: _312  and  _313
REMARK  127  A    between atoms: _316  and  _318
REMARK  128  A    between atoms: _318  and  _319
REMARK  129  A    between atoms: _318  and  _321
REMARK  130  A    between atoms: _323  and  _325
REMARK  131  A    between atoms: _325  and  _326
REMARK  132  A    between atoms: _329  and  _331
REMARK  133  A    between atoms: _331  and  _332
REMARK  134  A    between atoms: _331  and  _334
REMARK  135  A    between atoms: _334  and  _335
REMARK  136  A    between atoms: _335  and  _336
REMARK  137  A    between atoms: _336  and  _337
REMARK  138  A    between atoms: _337  and  _338
REMARK  139  A    between atoms: _342  and  _344
REMARK  140  A    between atoms: _344  and  _345
REMARK  141  A    between atoms: _344  and  _347
REMARK  142  A    between atoms: _347  and  _348
REMARK  143  A    between atoms: _351  and  _353
REMARK  144  A    between atoms: _353  and  _354
REMARK  145  A    between atoms: _357  and  _359
REMARK  146  A    between atoms: _359  and  _360
REMARK  147  A    between atoms: _359  and  _362
REMARK  148  A    between atoms: _362  and  _363
REMARK  149  A    between atoms: _363  and  _486
REMARK  150  A    between atoms: _364  and  _366
REMARK  151  A    between atoms: _366  and  _367
REMARK  152  A    between atoms: _366  and  _369
REMARK  153  A    between atoms: _369  and  _370
REMARK  154  A    between atoms: _370  and  _371
REMARK  155  A    between atoms: _371  and  _372
REMARK  156  A    between atoms: _372  and  _373
REMARK  157  A    between atoms: _377  and  _379
REMARK  158  A    between atoms: _379  and  _380
REMARK  159  A    between atoms: _382  and  _384
REMARK  160  A    between atoms: _384  and  _385
REMARK  161  A    between atoms: _384  and  _387
REMARK  162  A    between atoms: _387  and  _388
REMARK  163  A    between atoms: _391  and  _393
REMARK  164  A    between atoms: _393  and  _394
REMARK  165  A    between atoms: _393  and  _396
REMARK  166  A    between atoms: _396  and  _397
REMARK  167  A    between atoms: _399  and  _401
REMARK  168  A    between atoms: _401  and  _402
REMARK  169  A    between atoms: _404  and  _406
REMARK  170  A    between atoms: _406  and  _407
REMARK  171  A    between atoms: _409  and  _411
REMARK  172  A    between atoms: _411  and  _412
REMARK  173  A    between atoms: _411  and  _414
REMARK  174  A    between atoms: _414  and  _415
REMARK  175  A    between atoms: _418  and  _420
REMARK  176  A    between atoms: _420  and  _421
REMARK  177  A    between atoms: _420  and  _423
REMARK  178  A    between atoms: _423  and  _424
REMARK  179  A    between atoms: _427  and  _429
REMARK  180  A    between atoms: _429  and  _430
REMARK  181  A    between atoms: _429  and  _432
REMARK  182  A    between atoms: _432  and  _433
REMARK  183  A    between atoms: _436  and  _438
REMARK  184  A    between atoms: _438  and  _439
REMARK  185  A    between atoms: _438  and  _441
REMARK  186  A    between atoms: _441  and  _442
REMARK  187  A    between atoms: _444  and  _446
REMARK  188  A    between atoms: _446  and  _447
REMARK  189  A    between atoms: _446  and  _449
REMARK  190  A    between atoms: _449  and  _450
REMARK  191  A    between atoms: _460  and  _462
REMARK  192  A    between atoms: _462  and  _463
REMARK  193  A    between atoms: _465  and  _467
REMARK  194  A    between atoms: _467  and  _468
REMARK  195  A    between atoms: _467  and  _470
REMARK  196  A    between atoms: _470  and  _471
REMARK  197  A    between atoms: _471  and  _472
REMARK  198  A    between atoms: _475  and  _477
REMARK  199  A    between atoms: _477  and  _478
REMARK  200  A    between atoms: _480  and  _482
REMARK  201  A    between atoms: _482  and  _483
REMARK  202  A    between atoms: _482  and  _485
REMARK  203  A    between atoms: _485  and  _486
REMARK  204  A    between atoms: _487  and  _489
REMARK  205  A    between atoms: _489  and  _490
REMARK  206  A    between atoms: _493  and  _495
REMARK  207  A    between atoms: _495  and  _496
REMARK  208  A    between atoms: _495  and  _498
REMARK  209  A    between atoms: _498  and  _499
REMARK  210  A    between atoms: _499  and  _500
REMARK  211  A    between atoms: _505  and  _507
REMARK  212  A    between atoms: _507  and  _508
REMARK  213  A    between atoms: _507  and  _510
REMARK  214  A    between atoms: _510  and  _511
REMARK  215  A    between atoms: _511  and  _512
REMARK  216  A    between atoms: _512  and  _513
REMARK  217  A    between atoms: _523  and  _524
REMARK  218  A    between atoms: _529  and  _531
REMARK  219  A    between atoms: _531  and  _532
REMARK  220  A    between atoms: _534  and  _536
REMARK  221  A    between atoms: _536  and  _537
REMARK  222  A    between atoms: _536  and  _539
REMARK  223  A    between atoms: _542  and  _544
REMARK  224  A    between atoms: _544  and  _545
REMARK  225  A    between atoms: _544  and  _547
REMARK  226  A    between atoms: _547  and  _548
REMARK  227  A    between atoms: _553  and  _554
REMARK  228  A    between atoms: _556  and  _558
REMARK  229  A    between atoms: _558  and  _559
REMARK  230  A    between atoms: _558  and  _561
REMARK  231  A    between atoms: _561  and  _562
REMARK                            x       y       z     vdW  Elec       q    Type
REMARK                         _______ _______ _______ _____ _____    ______ ____
ROOT
ATOM      1  O   HOH     1      35.098 -10.823  25.614  0.00  0.00    +0.000 OA
ENDROOT
TORSDOF 0
REMARK  Name = ../refined-set-2016/4x6m/4x6m_pocket.pdb
REMARK  231 active torsions:
REMARK  status: ('A' for Active; 'I' for Inactive)
REMARK    1  A    between atoms: _1  and  _5
REMARK    2  A    between atoms: _5  and  _6
REMARK    3  A    between atoms: _5  and  _8
REMARK    4  A    between atoms: _8  and  _9
REMARK    5  A    between atoms: _12  and  _14
REMARK    6  A    between atoms: _14  and  _15
REMARK    7  A    between atoms: _14  and  _17
REMARK    8  A    between atoms: _20  and  _22
REMARK    9  A    between atoms: _22  and  _23
REMARK   10  A    between atoms: _22  and  _25
REMARK   11  A    between atoms: _25  and  _26
REMARK   12  A    between atoms: _29  and  _31
REMARK   13  A    between atoms: _31  and  _32
REMARK   14  A    between atoms: _31  and  _34
REMARK   15  A    between atoms: _34  and  _35
REMARK   16  A    between atoms: _40  and  _42
REMARK   17  A    between atoms: _42  and  _43
REMARK   18  A    between atoms: _42  and  _45
REMARK   19  A    between atoms: _45  and  _46
REMARK   20  A    between atoms: _49  and  _51
REMARK   21  A    between atoms: _51  and  _52
REMARK   22  A    between atoms: _51  and  _54
REMARK   23  A    between atoms: _54  and  _55
REMARK   24  A    between atoms: _58  and  _60
REMARK   25  A    between atoms: _60  and  _61
REMARK   26  A    between atoms: _60  and  _63
REMARK   27  A    between atoms: _63  and  _64
REMARK   28  A    between atoms: _64  and  _65
REMARK   29  A    between atoms: _70  and  _72
REMARK   30  A    between atoms: _72  and  _73
REMARK   31  A    between atoms: _72  and  _75
REMARK   32  A    between atoms: _75  and  _76
REMARK   33  A    between atoms: _76  and  _77
REMARK   34  A    between atoms: _77  and  _78
REMARK   35  A    between atoms: _87  and  _89
REMARK   36  A    between atoms: _89  and  _90
REMARK   37  A    between atoms: _89  and  _92
REMARK   38  A    between atoms: _92  and  _93
REMARK   39  A    between atoms: _98  and  _100
REMARK   40  A    between atoms: _100  and  _101
REMARK   41  A    between atoms: _100  and  _103
REMARK   42  A    between atoms: _103  and  _104
REMARK   43  A    between atoms: _107  and  _109
REMARK   44  A    between atoms: _109  and  _110
REMARK   45  A    between atoms: _109  and  _112
REMARK   46  A    between atoms: _112  and  _113
REMARK   47  A    between atoms: _113  and  _148
REMARK   48  A    between atoms: _114  and  _116
REMARK   49  A    between atoms: _116  and  _117
REMARK   50  A    between atoms: _119  and  _121
REMARK   51  A    between atoms: _121  and  _122
REMARK   52  A    between atoms: _125  and  _127
REMARK   53  A    between atoms: _127  and  _128
REMARK   54  A    between atoms: _131  and  _133
REMARK   55  A    between atoms: _133  and  _134
REMARK   56  A    between atoms: _133  and  _136
REMARK   57  A    between atoms: _136  and  _137
REMARK   58  A    between atoms: _142  and  _144
REMARK   59  A    between atoms: _144  and  _145
REMARK   60  A    between atoms: _144  and  _147
REMARK   61  A    between atoms: _147  and  _148
REMARK   62  A    between atoms: _149  and  _151
REMARK   63  A    between atoms: _151  and  _152
REMARK   64  A    between atoms: _151  and  _154
REMARK   65  A    between atoms: _154  and  _155
REMARK   66  A    between atoms: _161  and  _163
REMARK   67  A    between atoms: _163  and  _164
REMARK   68  A    between atoms: _163  and  _166
REMARK   69  A    between atoms: _166  and  _167
REMARK   70  A    between atoms: _172  and  _173
REMARK   71  A    between atoms: _175  and  _177
REMARK   72  A    between atoms: _177  and  _178
REMARK   73  A    between atoms: _177  and  _180
REMARK   74  A    between atoms: _183  and  _185
REMARK   75  A    between atoms: _185  and  _186
REMARK   76  A    between atoms: _189  and  _191
REMARK   77  A    between atoms: _191  and  _192
REMARK   78  A    between atoms: _191  and  _194
REMARK   79  A    between atoms: _194  and  _195
REMARK   80  A    between atoms: _198  and  _200
REMARK   81  A    between atoms: _200  and  _201
REMARK   82  A    between atoms: _200  and  _203
REMARK   83  A    between atoms: _206  and  _208
REMARK   84  A    between atoms: _208  and  _209
REMARK   85  A    between atoms: _208  and  _211
REMARK   86  A    between atoms: _211  and  _212
REMARK   87  A    between atoms: _222  and  _224
REMARK   88  A    between atoms: _224  and  _225
REMARK   89  A    between atoms: _227  and  _229
REMARK   90  A    between atoms: _229  and  _230
REMARK   91  A    between atoms: _229  and  _232
REMARK   92  A    between atoms: _232  and  _233
REMARK   93  A    between atoms: _238  and  _239
REMARK   94  A    between atoms: _241  and  _243
REMARK   95  A    between atoms: _243  and  _244
REMARK   96  A    between atoms: _243  and  _246
REMARK   97  A    between atoms: _246  and  _247
REMARK   98  A    between atoms: _250  and  _252
REMARK   99  A    between atoms: _252  and  _253
REMARK  100  A    between atoms: _252  and  _255
REMARK  101  A    between atoms: _255  and  _256
REMARK  102  A    between atoms: _259  and  _261
REMARK  103  A    between atoms: _261  and  _262
REMARK  104  A    between atoms: _261  and  _264
REMARK  105  A    between atoms: _264  and  _265
REMARK  106  A    between atoms: _265  and  _266
REMARK  107  A    between atoms: _266  and  _267
REMARK  108  A    between atoms: _267  and  _268
REMARK  109  A    between atoms: _272  and  _274
REMARK  110  A    between atoms: _274  and  _275
REMARK  111  A    between atoms: _274  and  _277
REMARK  112  A    between atoms: _277  and  _278
REMARK  113  A    between atoms: _281  and  _283
REMARK  114  A    between atoms: _283  and  _284
REMARK  115  A    between atoms: _283  and  _286
REMARK  116  A    between atoms: _286  and  _287
REMARK  117  A    between atoms: _287  and  _288
REMARK  118  A    between atoms: _293  and  _295
REMARK  119  A    between atoms: _295  and  _296
REMARK  120  A    between atoms: _295  and  _298
REMARK  121  A    between atoms: _298  and  _299
REMARK  122  A    between atoms: _304  and  _305
REMARK  123  A    between atoms: _307  and  _309
REMARK  124  A    between atoms: _309  and  _310
REMARK  125  A    between atoms: _309  and  _312
REMARK  126  A    between atoms: _312  and  _313
REMARK  127  A    between atoms: _316  and  _318
REMARK  128  A    between atoms: _318  and  _319
REMARK  129  A    between atoms: _318  and  _321
REMARK  130  A    between atoms: _323  and  _325
REMARK  131  A    between atoms: _325  and  _326
REMARK  132  A    between atoms: _329  and  _331
REMARK  133  A    between atoms: _331  and  _332
REMARK  134  A    between atoms: _331  and  _334
REMARK  135  A    between atoms: _334  and  _335
REMARK  136  A    between atoms: _335  and  _336
REMARK  137  A    between atoms: _336  and  _337
REMARK  138  A    between atoms: _337  and  _338
REMARK  139  A    between atoms: _342  and  _344
REMARK  140  A    between atoms: _344  and  _345
REMARK  141  A    between atoms: _344  and  _347
REMARK  142  A    between atoms: _347  and  _348
REMARK  143  A    between atoms: _351  and  _353
REMARK  144  A    between atoms: _353  and  _354
REMARK  145  A    between atoms: _357  and  _359
REMARK  146  A    between atoms: _359  and  _360
REMARK  147  A    between atoms: _359  and  _362
REMARK  148  A    between atoms: _362  and  _363
REMARK  149  A    between atoms: _363  and  _486
REMARK  150  A    between atoms: _364  and  _366
REMARK  151  A    between atoms: _366  and  _367
REMARK  152  A    between atoms: _366  and  _369
REMARK  153  A    between atoms: _369  and  _370
REMARK  154  A    between atoms: _370  and  _371
REMARK  155  A    between atoms: _371  and  _372
REMARK  156  A    between atoms: _372  and  _373
REMARK  157  A    between atoms: _377  and  _379
REMARK  158  A    between atoms: _379  and  _380
REMARK  159  A    between atoms: _382  and  _384
REMARK  160  A    between atoms: _384  and  _385
REMARK  161  A    between atoms: _384  and  _387
REMARK  162  A    between atoms: _387  and  _388
REMARK  163  A    between atoms: _391  and  _393
REMARK  164  A    between atoms: _393  and  _394
REMARK  165  A    between atoms: _393  and  _396
REMARK  166  A    between atoms: _396  and  _397
REMARK  167  A    between atoms: _399  and  _401
REMARK  168  A    between atoms: _401  and  _402
REMARK  169  A    between atoms: _404  and  _406
REMARK  170  A    between atoms: _406  and  _407
REMARK  171  A    between atoms: _409  and  _411
REMARK  172  A    between atoms: _411  and  _412
REMARK  173  A    between atoms: _411  and  _414
REMARK  174  A    between atoms: _414  and  _415
REMARK  175  A    between atoms: _418  and  _420
REMARK  176  A    between atoms: _420  and  _421
REMARK  177  A    between atoms: _420  and  _423
REMARK  178  A    between atoms: _423  and  _424
REMARK  179  A    between atoms: _427  and  _429
REMARK  180  A    between atoms: _429  and  _430
REMARK  181  A    between atoms: _429  and  _432
REMARK  182  A    between atoms: _432  and  _433
REMARK  183  A    between atoms: _436  and  _438
REMARK  184  A    between atoms: _438  and  _439
REMARK  185  A    between atoms: _438  and  _441
REMARK  186  A    between atoms: _441  and  _442
REMARK  187  A    between atoms: _444  and  _446
REMARK  188  A    between atoms: _446  and  _447
REMARK  189  A    between atoms: _446  and  _449
REMARK  190  A    between atoms: _449  and  _450
REMARK  191  A    between atoms: _460  and  _462
REMARK  192  A    between atoms: _462  and  _463
REMARK  193  A    between atoms: _465  and  _467
REMARK  194  A    between atoms: _467  and  _468
REMARK  195  A    between atoms: _467  and  _470
REMARK  196  A    between atoms: _470  and  _471
REMARK  197  A    between atoms: _471  and  _472
REMARK  198  A    between atoms: _475  and  _477
REMARK  199  A    between atoms: _477  and  _478
REMARK  200  A    between atoms: _480  and  _482
REMARK  201  A    between atoms: _482  and  _483
REMARK  202  A    between atoms: _482  and  _485
REMARK  203  A    between atoms: _485  and  _486
REMARK  204  A    between atoms: _487  and  _489
REMARK  205  A    between atoms: _489  and  _490
REMARK  206  A    between atoms: _493  and  _495
REMARK  207  A    between atoms: _495  and  _496
REMARK  208  A    between atoms: _495  and  _498
REMARK  209  A    between atoms: _498  and  _499
REMARK  210  A    between atoms: _499  and  _500
REMARK  211  A    between atoms: _505  and  _507
REMARK  212  A    between atoms: _507  and  _508
REMARK  213  A    between atoms: _507  and  _510
REMARK  214  A    between atoms: _510  and  _511
REMARK  215  A    between atoms: _511  and  _512
REMARK  216  A    between atoms: _512  and  _513
REMARK  217  A    between atoms: _523  and  _524
REMARK  218  A    between atoms: _529  and  _531
REMARK  219  A    between atoms: _531  and  _532
REMARK  220  A    between atoms: _534  and  _536
REMARK  221  A    between atoms: _536  and  _537
REMARK  222  A    between atoms: _536  and  _539
REMARK  223  A    between atoms: _542  and  _544
REMARK  224  A    between atoms: _544  and  _545
REMARK  225  A    between atoms: _544  and  _547
REMARK  226  A    between atoms: _547  and  _548
REMARK  227  A    between atoms: _553  and  _554
REMARK  228  A    between atoms: _556  and  _558
REMARK  229  A    between atoms: _558  and  _559
REMARK  230  A    between atoms: _558  and  _561
REMARK  231  A    between atoms: _561  and  _562
REMARK                            x       y       z     vdW  Elec       q    Type
REMARK                         _______ _______ _______ _____ _____    ______ ____
ROOT
ATOM      1  O   HOH     1      49.691 -22.359  37.222  0.00  0.00    +0.000 OA
ENDROOT
TORSDOF 0
REMARK  Name = ../refined-set-2016/4x6m/4x6m_pocket.pdb
REMARK  231 active torsions:
REMARK  status: ('A' for Active; 'I' for Inactive)
REMARK    1  A    between atoms: _1  and  _5
REMARK    2  A    between atoms: _5  and  _6
REMARK    3  A    between atoms: _5  and  _8
REMARK    4  A    between atoms: _8  and  _9
REMARK    5  A    between atoms: _12  and  _14
REMARK    6  A    between atoms: _14  and  _15
REMARK    7  A    between atoms: _14  and  _17
REMARK    8  A    between atoms: _20  and  _22
REMARK    9  A    between atoms: _22  and  _23
REMARK   10  A    between atoms: _22  and  _25
REMARK   11  A    between atoms: _25  and  _26
REMARK   12  A    between atoms: _29  and  _31
REMARK   13  A    between atoms: _31  and  _32
REMARK   14  A    between atoms: _31  and  _34
REMARK   15  A    between atoms: _34  and  _35
REMARK   16  A    between atoms: _40  and  _42
REMARK   17  A    between atoms: _42  and  _43
REMARK   18  A    between atoms: _42  and  _45
REMARK   19  A    between atoms: _45  and  _46
REMARK   20  A    between atoms: _49  and  _51
REMARK   21  A    between atoms: _51  and  _52
REMARK   22  A    between atoms: _51  and  _54
REMARK   23  A    between atoms: _54  and  _55
REMARK   24  A    between atoms: _58  and  _60
REMARK   25  A    between atoms: _60  and  _61
REMARK   26  A    between atoms: _60  and  _63
REMARK   27  A    between atoms: _63  and  _64
REMARK   28  A    between atoms: _64  and  _65
REMARK   29  A    between atoms: _70  and  _72
REMARK   30  A    between atoms: _72  and  _73
REMARK   31  A    between atoms: _72  and  _75
REMARK   32  A    between atoms: _75  and  _76
REMARK   33  A    between atoms: _76  and  _77
REMARK   34  A    between atoms: _77  and  _78
REMARK   35  A    between atoms: _87  and  _89
REMARK   36  A    between atoms: _89  and  _90
REMARK   37  A    between atoms: _89  and  _92
REMARK   38  A    between atoms: _92  and  _93
REMARK   39  A    between atoms: _98  and  _100
REMARK   40  A    between atoms: _100  and  _101
REMARK   41  A    between atoms: _100  and  _103
REMARK   42  A    between atoms: _103  and  _104
REMARK   43  A    between atoms: _107  and  _109
REMARK   44  A    between atoms: _109  and  _110
REMARK   45  A    between atoms: _109  and  _112
REMARK   46  A    between atoms: _112  and  _113
REMARK   47  A    between atoms: _113  and  _148
REMARK   48  A    between atoms: _114  and  _116
REMARK   49  A    between atoms: _116  and  _117
REMARK   50  A    between atoms: _119  and  _121
REMARK   51  A    between atoms: _121  and  _122
REMARK   52  A    between atoms: _125  and  _127
REMARK   53  A    between atoms: _127  and  _128
REMARK   54  A    between atoms: _131  and  _133
REMARK   55  A    between atoms: _133  and  _134
REMARK   56  A    between atoms: _133  and  _136
REMARK   57  A    between atoms: _136  and  _137
REMARK   58  A    between atoms: _142  and  _144
REMARK   59  A    between atoms: _144  and  _145
REMARK   60  A    between atoms: _144  and  _147
REMARK   61  A    between atoms: _147  and  _148
REMARK   62  A    between atoms: _149  and  _151
REMARK   63  A    between atoms: _151  and  _152
REMARK   64  A    between atoms: _151  and  _154
REMARK   65  A    between atoms: _154  and  _155
REMARK   66  A    between atoms: _161  and  _163
REMARK   67  A    between atoms: _163  and  _164
REMARK   68  A    between atoms: _163  and  _166
REMARK   69  A    between atoms: _166  and  _167
REMARK   70  A    between atoms: _172  and  _173
REMARK   71  A    between atoms: _175  and  _177
REMARK   72  A    between atoms: _177  and  _178
REMARK   73  A    between atoms: _177  and  _180
REMARK   74  A    between atoms: _183  and  _185
REMARK   75  A    between atoms: _185  and  _186
REMARK   76  A    between atoms: _189  and  _191
REMARK   77  A    between atoms: _191  and  _192
REMARK   78  A    between atoms: _191  and  _194
REMARK   79  A    between atoms: _194  and  _195
REMARK   80  A    between atoms: _198  and  _200
REMARK   81  A    between atoms: _200  and  _201
REMARK   82  A    between atoms: _200  and  _203
REMARK   83  A    between atoms: _206  and  _208
REMARK   84  A    between atoms: _208  and  _209
REMARK   85  A    between atoms: _208  and  _211
REMARK   86  A    between atoms: _211  and  _212
REMARK   87  A    between atoms: _222  and  _224
REMARK   88  A    between atoms: _224  and  _225
REMARK   89  A    between atoms: _227  and  _229
REMARK   90  A    between atoms: _229  and  _230
REMARK   91  A    between atoms: _229  and  _232
REMARK   92  A    between atoms: _232  and  _233
REMARK   93  A    between atoms: _238  and  _239
REMARK   94  A    between atoms: _241  and  _243
REMARK   95  A    between atoms: _243  and  _244
REMARK   96  A    between atoms: _243  and  _246
REMARK   97  A    between atoms: _246  and  _247
REMARK   98  A    between atoms: _250  and  _252
REMARK   99  A    between atoms: _252  and  _253
REMARK  100  A    between atoms: _252  and  _255
REMARK  101  A    between atoms: _255  and  _256
REMARK  102  A    between atoms: _259  and  _261
REMARK  103  A    between atoms: _261  and  _262
REMARK  104  A    between atoms: _261  and  _264
REMARK  105  A    between atoms: _264  and  _265
REMARK  106  A    between atoms: _265  and  _266
REMARK  107  A    between atoms: _266  and  _267
REMARK  108  A    between atoms: _267  and  _268
REMARK  109  A    between atoms: _272  and  _274
REMARK  110  A    between atoms: _274  and  _275
REMARK  111  A    between atoms: _274  and  _277
REMARK  112  A    between atoms: _277  and  _278
REMARK  113  A    between atoms: _281  and  _283
REMARK  114  A    between atoms: _283  and  _284
REMARK  115  A    between atoms: _283  and  _286
REMARK  116  A    between atoms: _286  and  _287
REMARK  117  A    between atoms: _287  and  _288
REMARK  118  A    between atoms: _293  and  _295
REMARK  119  A    between atoms: _295  and  _296
REMARK  120  A    between atoms: _295  and  _298
REMARK  121  A    between atoms: _298  and  _299
REMARK  122  A    between atoms: _304  and  _305
REMARK  123  A    between atoms: _307  and  _309
REMARK  124  A    between atoms: _309  and  _310
REMARK  125  A    between atoms: _309  and  _312
REMARK  126  A    between atoms: _312  and  _313
REMARK  127  A    between atoms: _316  and  _318
REMARK  128  A    between atoms: _318  and  _319
REMARK  129  A    between atoms: _318  and  _321
REMARK  130  A    between atoms: _323  and  _325
REMARK  131  A    between atoms: _325  and  _326
REMARK  132  A    between atoms: _329  and  _331
REMARK  133  A    between atoms: _331  and  _332
REMARK  134  A    between atoms: _331  and  _334
REMARK  135  A    between atoms: _334  and  _335
REMARK  136  A    between atoms: _335  and  _336
REMARK  137  A    between atoms: _336  and  _337
REMARK  138  A    between atoms: _337  and  _338
REMARK  139  A    between atoms: _342  and  _344
REMARK  140  A    between atoms: _344  and  _345
REMARK  141  A    between atoms: _344  and  _347
REMARK  142  A    between atoms: _347  and  _348
REMARK  143  A    between atoms: _351  and  _353
REMARK  144  A    between atoms: _353  and  _354
REMARK  145  A    between atoms: _357  and  _359
REMARK  146  A    between atoms: _359  and  _360
REMARK  147  A    between atoms: _359  and  _362
REMARK  148  A    between atoms: _362  and  _363
REMARK  149  A    between atoms: _363  and  _486
REMARK  150  A    between atoms: _364  and  _366
REMARK  151  A    between atoms: _366  and  _367
REMARK  152  A    between atoms: _366  and  _369
REMARK  153  A    between atoms: _369  and  _370
REMARK  154  A    between atoms: _370  and  _371
REMARK  155  A    between atoms: _371  and  _372
REMARK  156  A    between atoms: _372  and  _373
REMARK  157  A    between atoms: _377  and  _379
REMARK  158  A    between atoms: _379  and  _380
REMARK  159  A    between atoms: _382  and  _384
REMARK  160  A    between atoms: _384  and  _385
REMARK  161  A    between atoms: _384  and  _387
REMARK  162  A    between atoms: _387  and  _388
REMARK  163  A    between atoms: _391  and  _393
REMARK  164  A    between atoms: _393  and  _394
REMARK  165  A    between atoms: _393  and  _396
REMARK  166  A    between atoms: _396  and  _397
REMARK  167  A    between atoms: _399  and  _401
REMARK  168  A    between atoms: _401  and  _402
REMARK  169  A    between atoms: _404  and  _406
REMARK  170  A    between atoms: _406  and  _407
REMARK  171  A    between atoms: _409  and  _411
REMARK  172  A    between atoms: _411  and  _412
REMARK  173  A    between atoms: _411  and  _414
REMARK  174  A    between atoms: _414  and  _415
REMARK  175  A    between atoms: _418  and  _420
REMARK  176  A    between atoms: _420  and  _421
REMARK  177  A    between atoms: _420  and  _423
REMARK  178  A    between atoms: _423  and  _424
REMARK  179  A    between atoms: _427  and  _429
REMARK  180  A    between atoms: _429  and  _430
REMARK  181  A    between atoms: _429  and  _432
REMARK  182  A    between atoms: _432  and  _433
REMARK  183  A    between atoms: _436  and  _438
REMARK  184  A    between atoms: _438  and  _439
REMARK  185  A    between atoms: _438  and  _441
REMARK  186  A    between atoms: _441  and  _442
REMARK  187  A    between atoms: _444  and  _446
REMARK  188  A    between atoms: _446  and  _447
REMARK  189  A    between atoms: _446  and  _449
REMARK  190  A    between atoms: _449  and  _450
REMARK  191  A    between atoms: _460  and  _462
REMARK  192  A    between atoms: _462  and  _463
REMARK  193  A    between atoms: _465  and  _467
REMARK  194  A    between atoms: _467  and  _468
REMARK  195  A    between atoms: _467  and  _470
REMARK  196  A    between atoms: _470  and  _471
REMARK  197  A    between atoms: _471  and  _472
REMARK  198  A    between atoms: _475  and  _477
REMARK  199  A    between atoms: _477  and  _478
REMARK  200  A    between atoms: _480  and  _482
REMARK  201  A    between atoms: _482  and  _483
REMARK  202  A    between atoms: _482  and  _485
REMARK  203  A    between atoms: _485  and  _486
REMARK  204  A    between atoms: _487  and  _489
REMARK  205  A    between atoms: _489  and  _490
REMARK  206  A    between atoms: _493  and  _495
REMARK  207  A    between atoms: _495  and  _496
REMARK  208  A    between atoms: _495  and  _498
REMARK  209  A    between atoms: _498  and  _499
REMARK  210  A    between atoms: _499  and  _500
REMARK  211  A    between atoms: _505  and  _507
REMARK  212  A    between atoms: _507  and  _508
REMARK  213  A    between atoms: _507  and  _510
REMARK  214  A    between atoms: _510  and  _511
REMARK  215  A    between atoms: _511  and  _512
REMARK  216  A    between atoms: _512  and  _513
REMARK  217  A    between atoms: _523  and  _524
REMARK  218  A    between atoms: _529  and  _531
REMARK  219  A    between atoms: _531  and  _532
REMARK  220  A    between atoms: _534  and  _536
REMARK  221  A    between atoms: _536  and  _537
REMARK  222  A    between atoms: _536  and  _539
REMARK  223  A    between atoms: _542  and  _544
REMARK  224  A    between atoms: _544  and  _545
REMARK  225  A    between atoms: _544  and  _547
REMARK  226  A    between atoms: _547  and  _548
REMARK  227  A    between atoms: _553  and  _554
REMARK  228  A    between atoms: _556  and  _558
REMARK  229  A    between atoms: _558  and  _559
REMARK  230  A    between atoms: _558  and  _561
REMARK  231  A    between atoms: _561  and  _562
REMARK                            x       y       z     vdW  Elec       q    Type
REMARK                         _______ _______ _______ _____ _____    ______ ____
ROOT
ATOM      1  O   HOH     1      38.394 -17.398  37.668  0.00  0.00    +0.000 OA
ENDROOT
TORSDOF 0
REMARK  Name = ../refined-set-2016/4x6m/4x6m_pocket.pdb
REMARK  231 active torsions:
REMARK  status: ('A' for Active; 'I' for Inactive)
REMARK    1  A    between atoms: _1  and  _5
REMARK    2  A    between atoms: _5  and  _6
REMARK    3  A    between atoms: _5  and  _8
REMARK    4  A    between atoms: _8  and  _9
REMARK    5  A    between atoms: _12  and  _14
REMARK    6  A    between atoms: _14  and  _15
REMARK    7  A    between atoms: _14  and  _17
REMARK    8  A    between atoms: _20  and  _22
REMARK    9  A    between atoms: _22  and  _23
REMARK   10  A    between atoms: _22  and  _25
REMARK   11  A    between atoms: _25  and  _26
REMARK   12  A    between atoms: _29  and  _31
REMARK   13  A    between atoms: _31  and  _32
REMARK   14  A    between atoms: _31  and  _34
REMARK   15  A    between atoms: _34  and  _35
REMARK   16  A    between atoms: _40  and  _42
REMARK   17  A    between atoms: _42  and  _43
REMARK   18  A    between atoms: _42  and  _45
REMARK   19  A    between atoms: _45  and  _46
REMARK   20  A    between atoms: _49  and  _51
REMARK   21  A    between atoms: _51  and  _52
REMARK   22  A    between atoms: _51  and  _54
REMARK   23  A    between atoms: _54  and  _55
REMARK   24  A    between atoms: _58  and  _60
REMARK   25  A    between atoms: _60  and  _61
REMARK   26  A    between atoms: _60  and  _63
REMARK   27  A    between atoms: _63  and  _64
REMARK   28  A    between atoms: _64  and  _65
REMARK   29  A    between atoms: _70  and  _72
REMARK   30  A    between atoms: _72  and  _73
REMARK   31  A    between atoms: _72  and  _75
REMARK   32  A    between atoms: _75  and  _76
REMARK   33  A    between atoms: _76  and  _77
REMARK   34  A    between atoms: _77  and  _78
REMARK   35  A    between atoms: _87  and  _89
REMARK   36  A    between atoms: _89  and  _90
REMARK   37  A    between atoms: _89  and  _92
REMARK   38  A    between atoms: _92  and  _93
REMARK   39  A    between atoms: _98  and  _100
REMARK   40  A    between atoms: _100  and  _101
REMARK   41  A    between atoms: _100  and  _103
REMARK   42  A    between atoms: _103  and  _104
REMARK   43  A    between atoms: _107  and  _109
REMARK   44  A    between atoms: _109  and  _110
REMARK   45  A    between atoms: _109  and  _112
REMARK   46  A    between atoms: _112  and  _113
REMARK   47  A    between atoms: _113  and  _148
REMARK   48  A    between atoms: _114  and  _116
REMARK   49  A    between atoms: _116  and  _117
REMARK   50  A    between atoms: _119  and  _121
REMARK   51  A    between atoms: _121  and  _122
REMARK   52  A    between atoms: _125  and  _127
REMARK   53  A    between atoms: _127  and  _128
REMARK   54  A    between atoms: _131  and  _133
REMARK   55  A    between atoms: _133  and  _134
REMARK   56  A    between atoms: _133  and  _136
REMARK   57  A    between atoms: _136  and  _137
REMARK   58  A    between atoms: _142  and  _144
REMARK   59  A    between atoms: _144  and  _145
REMARK   60  A    between atoms: _144  and  _147
REMARK   61  A    between atoms: _147  and  _148
REMARK   62  A    between atoms: _149  and  _151
REMARK   63  A    between atoms: _151  and  _152
REMARK   64  A    between atoms: _151  and  _154
REMARK   65  A    between atoms: _154  and  _155
REMARK   66  A    between atoms: _161  and  _163
REMARK   67  A    between atoms: _163  and  _164
REMARK   68  A    between atoms: _163  and  _166
REMARK   69  A    between atoms: _166  and  _167
REMARK   70  A    between atoms: _172  and  _173
REMARK   71  A    between atoms: _175  and  _177
REMARK   72  A    between atoms: _177  and  _178
REMARK   73  A    between atoms: _177  and  _180
REMARK   74  A    between atoms: _183  and  _185
REMARK   75  A    between atoms: _185  and  _186
REMARK   76  A    between atoms: _189  and  _191
REMARK   77  A    between atoms: _191  and  _192
REMARK   78  A    between atoms: _191  and  _194
REMARK   79  A    between atoms: _194  and  _195
REMARK   80  A    between atoms: _198  and  _200
REMARK   81  A    between atoms: _200  and  _201
REMARK   82  A    between atoms: _200  and  _203
REMARK   83  A    between atoms: _206  and  _208
REMARK   84  A    between atoms: _208  and  _209
REMARK   85  A    between atoms: _208  and  _211
REMARK   86  A    between atoms: _211  and  _212
REMARK   87  A    between atoms: _222  and  _224
REMARK   88  A    between atoms: _224  and  _225
REMARK   89  A    between atoms: _227  and  _229
REMARK   90  A    between atoms: _229  and  _230
REMARK   91  A    between atoms: _229  and  _232
REMARK   92  A    between atoms: _232  and  _233
REMARK   93  A    between atoms: _238  and  _239
REMARK   94  A    between atoms: _241  and  _243
REMARK   95  A    between atoms: _243  and  _244
REMARK   96  A    between atoms: _243  and  _246
REMARK   97  A    between atoms: _246  and  _247
REMARK   98  A    between atoms: _250  and  _252
REMARK   99  A    between atoms: _252  and  _253
REMARK  100  A    between atoms: _252  and  _255
REMARK  101  A    between atoms: _255  and  _256
REMARK  102  A    between atoms: _259  and  _261
REMARK  103  A    between atoms: _261  and  _262
REMARK  104  A    between atoms: _261  and  _264
REMARK  105  A    between atoms: _264  and  _265
REMARK  106  A    between atoms: _265  and  _266
REMARK  107  A    between atoms: _266  and  _267
REMARK  108  A    between atoms: _267  and  _268
REMARK  109  A    between atoms: _272  and  _274
REMARK  110  A    between atoms: _274  and  _275
REMARK  111  A    between atoms: _274  and  _277
REMARK  112  A    between atoms: _277  and  _278
REMARK  113  A    between atoms: _281  and  _283
REMARK  114  A    between atoms: _283  and  _284
REMARK  115  A    between atoms: _283  and  _286
REMARK  116  A    between atoms: _286  and  _287
REMARK  117  A    between atoms: _287  and  _288
REMARK  118  A    between atoms: _293  and  _295
REMARK  119  A    between atoms: _295  and  _296
REMARK  120  A    between atoms: _295  and  _298
REMARK  121  A    between atoms: _298  and  _299
REMARK  122  A    between atoms: _304  and  _305
REMARK  123  A    between atoms: _307  and  _309
REMARK  124  A    between atoms: _309  and  _310
REMARK  125  A    between atoms: _309  and  _312
REMARK  126  A    between atoms: _312  and  _313
REMARK  127  A    between atoms: _316  and  _318
REMARK  128  A    between atoms: _318  and  _319
REMARK  129  A    between atoms: _318  and  _321
REMARK  130  A    between atoms: _323  and  _325
REMARK  131  A    between atoms: _325  and  _326
REMARK  132  A    between atoms: _329  and  _331
REMARK  133  A    between atoms: _331  and  _332
REMARK  134  A    between atoms: _331  and  _334
REMARK  135  A    between atoms: _334  and  _335
REMARK  136  A    between atoms: _335  and  _336
REMARK  137  A    between atoms: _336  and  _337
REMARK  138  A    between atoms: _337  and  _338
REMARK  139  A    between atoms: _342  and  _344
REMARK  140  A    between atoms: _344  and  _345
REMARK  141  A    between atoms: _344  and  _347
REMARK  142  A    between atoms: _347  and  _348
REMARK  143  A    between atoms: _351  and  _353
REMARK  144  A    between atoms: _353  and  _354
REMARK  145  A    between atoms: _357  and  _359
REMARK  146  A    between atoms: _359  and  _360
REMARK  147  A    between atoms: _359  and  _362
REMARK  148  A    between atoms: _362  and  _363
REMARK  149  A    between atoms: _363  and  _486
REMARK  150  A    between atoms: _364  and  _366
REMARK  151  A    between atoms: _366  and  _367
REMARK  152  A    between atoms: _366  and  _369
REMARK  153  A    between atoms: _369  and  _370
REMARK  154  A    between atoms: _370  and  _371
REMARK  155  A    between atoms: _371  and  _372
REMARK  156  A    between atoms: _372  and  _373
REMARK  157  A    between atoms: _377  and  _379
REMARK  158  A    between atoms: _379  and  _380
REMARK  159  A    between atoms: _382  and  _384
REMARK  160  A    between atoms: _384  and  _385
REMARK  161  A    between atoms: _384  and  _387
REMARK  162  A    between atoms: _387  and  _388
REMARK  163  A    between atoms: _391  and  _393
REMARK  164  A    between atoms: _393  and  _394
REMARK  165  A    between atoms: _393  and  _396
REMARK  166  A    between atoms: _396  and  _397
REMARK  167  A    between atoms: _399  and  _401
REMARK  168  A    between atoms: _401  and  _402
REMARK  169  A    between atoms: _404  and  _406
REMARK  170  A    between atoms: _406  and  _407
REMARK  171  A    between atoms: _409  and  _411
REMARK  172  A    between atoms: _411  and  _412
REMARK  173  A    between atoms: _411  and  _414
REMARK  174  A    between atoms: _414  and  _415
REMARK  175  A    between atoms: _418  and  _420
REMARK  176  A    between atoms: _420  and  _421
REMARK  177  A    between atoms: _420  and  _423
REMARK  178  A    between atoms: _423  and  _424
REMARK  179  A    between atoms: _427  and  _429
REMARK  180  A    between atoms: _429  and  _430
REMARK  181  A    between atoms: _429  and  _432
REMARK  182  A    between atoms: _432  and  _433
REMARK  183  A    between atoms: _436  and  _438
REMARK  184  A    between atoms: _438  and  _439
REMARK  185  A    between atoms: _438  and  _441
REMARK  186  A    between atoms: _441  and  _442
REMARK  187  A    between atoms: _444  and  _446
REMARK  188  A    between atoms: _446  and  _447
REMARK  189  A    between atoms: _446  and  _449
REMARK  190  A    between atoms: _449  and  _450
REMARK  191  A    between atoms: _460  and  _462
REMARK  192  A    between atoms: _462  and  _463
REMARK  193  A    between atoms: _465  and  _467
REMARK  194  A    between atoms: _467  and  _468
REMARK  195  A    between atoms: _467  and  _470
REMARK  196  A    between atoms: _470  and  _471
REMARK  197  A    between atoms: _471  and  _472
REMARK  198  A    between atoms: _475  and  _477
REMARK  199  A    between atoms: _477  and  _478
REMARK  200  A    between atoms: _480  and  _482
REMARK  201  A    between atoms: _482  and  _483
REMARK  202  A    between atoms: _482  and  _485
REMARK  203  A    between atoms: _485  and  _486
REMARK  204  A    between atoms: _487  and  _489
REMARK  205  A    between atoms: _489  and  _490
REMARK  206  A    between atoms: _493  and  _495
REMARK  207  A    between atoms: _495  and  _496
REMARK  208  A    between atoms: _495  and  _498
REMARK  209  A    between atoms: _498  and  _499
REMARK  210  A    between atoms: _499  and  _500
REMARK  211  A    between atoms: _505  and  _507
REMARK  212  A    between atoms: _507  and  _508
REMARK  213  A    between atoms: _507  and  _510
REMARK  214  A    between atoms: _510  and  _511
REMARK  215  A    between atoms: _511  and  _512
REMARK  216  A    between atoms: _512  and  _513
REMARK  217  A    between atoms: _523  and  _524
REMARK  218  A    between atoms: _529  and  _531
REMARK  219  A    between atoms: _531  and  _532
REMARK  220  A    between atoms: _534  and  _536
REMARK  221  A    between atoms: _536  and  _537
REMARK  222  A    between atoms: _536  and  _539
REMARK  223  A    between atoms: _542  and  _544
REMARK  224  A    between atoms: _544  and  _545
REMARK  225  A    between atoms: _544  and  _547
REMARK  226  A    between atoms: _547  and  _548
REMARK  227  A    between atoms: _553  and  _554
REMARK  228  A    between atoms: _556  and  _558
REMARK  229  A    between atoms: _558  and  _559
REMARK  230  A    between atoms: _558  and  _561
REMARK  231  A    between atoms: _561  and  _562
REMARK                            x       y       z     vdW  Elec       q    Type
REMARK                         _______ _______ _______ _____ _____    ______ ____
ROOT
ATOM      1  O   HOH     1      34.746  -6.457  26.455  0.00  0.00    +0.000 OA
ENDROOT
TORSDOF 0
REMARK  Name = ../refined-set-2016/4x6m/4x6m_pocket.pdb
REMARK  231 active torsions:
REMARK  status: ('A' for Active; 'I' for Inactive)
REMARK    1  A    between atoms: _1  and  _5
REMARK    2  A    between atoms: _5  and  _6
REMARK    3  A    between atoms: _5  and  _8
REMARK    4  A    between atoms: _8  and  _9
REMARK    5  A    between atoms: _12  and  _14
REMARK    6  A    between atoms: _14  and  _15
REMARK    7  A    between atoms: _14  and  _17
REMARK    8  A    between atoms: _20  and  _22
REMARK    9  A    between atoms: _22  and  _23
REMARK   10  A    between atoms: _22  and  _25
REMARK   11  A    between atoms: _25  and  _26
REMARK   12  A    between atoms: _29  and  _31
REMARK   13  A    between atoms: _31  and  _32
REMARK   14  A    between atoms: _31  and  _34
REMARK   15  A    between atoms: _34  and  _35
REMARK   16  A    between atoms: _40  and  _42
REMARK   17  A    between atoms: _42  and  _43
REMARK   18  A    between atoms: _42  and  _45
REMARK   19  A    between atoms: _45  and  _46
REMARK   20  A    between atoms: _49  and  _51
REMARK   21  A    between atoms: _51  and  _52
REMARK   22  A    between atoms: _51  and  _54
REMARK   23  A    between atoms: _54  and  _55
REMARK   24  A    between atoms: _58  and  _60
REMARK   25  A    between atoms: _60  and  _61
REMARK   26  A    between atoms: _60  and  _63
REMARK   27  A    between atoms: _63  and  _64
REMARK   28  A    between atoms: _64  and  _65
REMARK   29  A    between atoms: _70  and  _72
REMARK   30  A    between atoms: _72  and  _73
REMARK   31  A    between atoms: _72  and  _75
REMARK   32  A    between atoms: _75  and  _76
REMARK   33  A    between atoms: _76  and  _77
REMARK   34  A    between atoms: _77  and  _78
REMARK   35  A    between atoms: _87  and  _89
REMARK   36  A    between atoms: _89  and  _90
REMARK   37  A    between atoms: _89  and  _92
REMARK   38  A    between atoms: _92  and  _93
REMARK   39  A    between atoms: _98  and  _100
REMARK   40  A    between atoms: _100  and  _101
REMARK   41  A    between atoms: _100  and  _103
REMARK   42  A    between atoms: _103  and  _104
REMARK   43  A    between atoms: _107  and  _109
REMARK   44  A    between atoms: _109  and  _110
REMARK   45  A    between atoms: _109  and  _112
REMARK   46  A    between atoms: _112  and  _113
REMARK   47  A    between atoms: _113  and  _148
REMARK   48  A    between atoms: _114  and  _116
REMARK   49  A    between atoms: _116  and  _117
REMARK   50  A    between atoms: _119  and  _121
REMARK   51  A    between atoms: _121  and  _122
REMARK   52  A    between atoms: _125  and  _127
REMARK   53  A    between atoms: _127  and  _128
REMARK   54  A    between atoms: _131  and  _133
REMARK   55  A    between atoms: _133  and  _134
REMARK   56  A    between atoms: _133  and  _136
REMARK   57  A    between atoms: _136  and  _137
REMARK   58  A    between atoms: _142  and  _144
REMARK   59  A    between atoms: _144  and  _145
REMARK   60  A    between atoms: _144  and  _147
REMARK   61  A    between atoms: _147  and  _148
REMARK   62  A    between atoms: _149  and  _151
REMARK   63  A    between atoms: _151  and  _152
REMARK   64  A    between atoms: _151  and  _154
REMARK   65  A    between atoms: _154  and  _155
REMARK   66  A    between atoms: _161  and  _163
REMARK   67  A    between atoms: _163  and  _164
REMARK   68  A    between atoms: _163  and  _166
REMARK   69  A    between atoms: _166  and  _167
REMARK   70  A    between atoms: _172  and  _173
REMARK   71  A    between atoms: _175  and  _177
REMARK   72  A    between atoms: _177  and  _178
REMARK   73  A    between atoms: _177  and  _180
REMARK   74  A    between atoms: _183  and  _185
REMARK   75  A    between atoms: _185  and  _186
REMARK   76  A    between atoms: _189  and  _191
REMARK   77  A    between atoms: _191  and  _192
REMARK   78  A    between atoms: _191  and  _194
REMARK   79  A    between atoms: _194  and  _195
REMARK   80  A    between atoms: _198  and  _200
REMARK   81  A    between atoms: _200  and  _201
REMARK   82  A    between atoms: _200  and  _203
REMARK   83  A    between atoms: _206  and  _208
REMARK   84  A    between atoms: _208  and  _209
REMARK   85  A    between atoms: _208  and  _211
REMARK   86  A    between atoms: _211  and  _212
REMARK   87  A    between atoms: _222  and  _224
REMARK   88  A    between atoms: _224  and  _225
REMARK   89  A    between atoms: _227  and  _229
REMARK   90  A    between atoms: _229  and  _230
REMARK   91  A    between atoms: _229  and  _232
REMARK   92  A    between atoms: _232  and  _233
REMARK   93  A    between atoms: _238  and  _239
REMARK   94  A    between atoms: _241  and  _243
REMARK   95  A    between atoms: _243  and  _244
REMARK   96  A    between atoms: _243  and  _246
REMARK   97  A    between atoms: _246  and  _247
REMARK   98  A    between atoms: _250  and  _252
REMARK   99  A    between atoms: _252  and  _253
REMARK  100  A    between atoms: _252  and  _255
REMARK  101  A    between atoms: _255  and  _256
REMARK  102  A    between atoms: _259  and  _261
REMARK  103  A    between atoms: _261  and  _262
REMARK  104  A    between atoms: _261  and  _264
REMARK  105  A    between atoms: _264  and  _265
REMARK  106  A    between atoms: _265  and  _266
REMARK  107  A    between atoms: _266  and  _267
REMARK  108  A    between atoms: _267  and  _268
REMARK  109  A    between atoms: _272  and  _274
REMARK  110  A    between atoms: _274  and  _275
REMARK  111  A    between atoms: _274  and  _277
REMARK  112  A    between atoms: _277  and  _278
REMARK  113  A    between atoms: _281  and  _283
REMARK  114  A    between atoms: _283  and  _284
REMARK  115  A    between atoms: _283  and  _286
REMARK  116  A    between atoms: _286  and  _287
REMARK  117  A    between atoms: _287  and  _288
REMARK  118  A    between atoms: _293  and  _295
REMARK  119  A    between atoms: _295  and  _296
REMARK  120  A    between atoms: _295  and  _298
REMARK  121  A    between atoms: _298  and  _299
REMARK  122  A    between atoms: _304  and  _305
REMARK  123  A    between atoms: _307  and  _309
REMARK  124  A    between atoms: _309  and  _310
REMARK  125  A    between atoms: _309  and  _312
REMARK  126  A    between atoms: _312  and  _313
REMARK  127  A    between atoms: _316  and  _318
REMARK  128  A    between atoms: _318  and  _319
REMARK  129  A    between atoms: _318  and  _321
REMARK  130  A    between atoms: _323  and  _325
REMARK  131  A    between atoms: _325  and  _326
REMARK  132  A    between atoms: _329  and  _331
REMARK  133  A    between atoms: _331  and  _332
REMARK  134  A    between atoms: _331  and  _334
REMARK  135  A    between atoms: _334  and  _335
REMARK  136  A    between atoms: _335  and  _336
REMARK  137  A    between atoms: _336  and  _337
REMARK  138  A    between atoms: _337  and  _338
REMARK  139  A    between atoms: _342  and  _344
REMARK  140  A    between atoms: _344  and  _345
REMARK  141  A    between atoms: _344  and  _347
REMARK  142  A    between atoms: _347  and  _348
REMARK  143  A    between atoms: _351  and  _353
REMARK  144  A    between atoms: _353  and  _354
REMARK  145  A    between atoms: _357  and  _359
REMARK  146  A    between atoms: _359  and  _360
REMARK  147  A    between atoms: _359  and  _362
REMARK  148  A    between atoms: _362  and  _363
REMARK  149  A    between atoms: _363  and  _486
REMARK  150  A    between atoms: _364  and  _366
REMARK  151  A    between atoms: _366  and  _367
REMARK  152  A    between atoms: _366  and  _369
REMARK  153  A    between atoms: _369  and  _370
REMARK  154  A    between atoms: _370  and  _371
REMARK  155  A    between atoms: _371  and  _372
REMARK  156  A    between atoms: _372  and  _373
REMARK  157  A    between atoms: _377  and  _379
REMARK  158  A    between atoms: _379  and  _380
REMARK  159  A    between atoms: _382  and  _384
REMARK  160  A    between atoms: _384  and  _385
REMARK  161  A    between atoms: _384  and  _387
REMARK  162  A    between atoms: _387  and  _388
REMARK  163  A    between atoms: _391  and  _393
REMARK  164  A    between atoms: _393  and  _394
REMARK  165  A    between atoms: _393  and  _396
REMARK  166  A    between atoms: _396  and  _397
REMARK  167  A    between atoms: _399  and  _401
REMARK  168  A    between atoms: _401  and  _402
REMARK  169  A    between atoms: _404  and  _406
REMARK  170  A    between atoms: _406  and  _407
REMARK  171  A    between atoms: _409  and  _411
REMARK  172  A    between atoms: _411  and  _412
REMARK  173  A    between atoms: _411  and  _414
REMARK  174  A    between atoms: _414  and  _415
REMARK  175  A    between atoms: _418  and  _420
REMARK  176  A    between atoms: _420  and  _421
REMARK  177  A    between atoms: _420  and  _423
REMARK  178  A    between atoms: _423  and  _424
REMARK  179  A    between atoms: _427  and  _429
REMARK  180  A    between atoms: _429  and  _430
REMARK  181  A    between atoms: _429  and  _432
REMARK  182  A    between atoms: _432  and  _433
REMARK  183  A    between atoms: _436  and  _438
REMARK  184  A    between atoms: _438  and  _439
REMARK  185  A    between atoms: _438  and  _441
REMARK  186  A    between atoms: _441  and  _442
REMARK  187  A    between atoms: _444  and  _446
REMARK  188  A    between atoms: _446  and  _447
REMARK  189  A    between atoms: _446  and  _449
REMARK  190  A    between atoms: _449  and  _450
REMARK  191  A    between atoms: _460  and  _462
REMARK  192  A    between atoms: _462  and  _463
REMARK  193  A    between atoms: _465  and  _467
REMARK  194  A    between atoms: _467  and  _468
REMARK  195  A    between atoms: _467  and  _470
REMARK  196  A    between atoms: _470  and  _471
REMARK  197  A    between atoms: _471  and  _472
REMARK  198  A    between atoms: _475  and  _477
REMARK  199  A    between atoms: _477  and  _478
REMARK  200  A    between atoms: _480  and  _482
REMARK  201  A    between atoms: _482  and  _483
REMARK  202  A    between atoms: _482  and  _485
REMARK  203  A    between atoms: _485  and  _486
REMARK  204  A    between atoms: _487  and  _489
REMARK  205  A    between atoms: _489  and  _490
REMARK  206  A    between atoms: _493  and  _495
REMARK  207  A    between atoms: _495  and  _496
REMARK  208  A    between atoms: _495  and  _498
REMARK  209  A    between atoms: _498  and  _499
REMARK  210  A    between atoms: _499  and  _500
REMARK  211  A    between atoms: _505  and  _507
REMARK  212  A    between atoms: _507  and  _508
REMARK  213  A    between atoms: _507  and  _510
REMARK  214  A    between atoms: _510  and  _511
REMARK  215  A    between atoms: _511  and  _512
REMARK  216  A    between atoms: _512  and  _513
REMARK  217  A    between atoms: _523  and  _524
REMARK  218  A    between atoms: _529  and  _531
REMARK  219  A    between atoms: _531  and  _532
REMARK  220  A    between atoms: _534  and  _536
REMARK  221  A    between atoms: _536  and  _537
REMARK  222  A    between atoms: _536  and  _539
REMARK  223  A    between atoms: _542  and  _544
REMARK  224  A    between atoms: _544  and  _545
REMARK  225  A    between atoms: _544  and  _547
REMARK  226  A    between atoms: _547  and  _548
REMARK  227  A    between atoms: _553  and  _554
REMARK  228  A    between atoms: _556  and  _558
REMARK  229  A    between atoms: _558  and  _559
REMARK  230  A    between atoms: _558  and  _561
REMARK  231  A    between atoms: _561  and  _562
REMARK                            x       y       z     vdW  Elec       q    Type
REMARK                         _______ _______ _______ _____ _____    ______ ____
ROOT
ATOM      1  O   HOH     1      35.743 -20.867  26.514  0.00  0.00    +0.000 OA
ENDROOT
TORSDOF 0
REMARK  Name = ../refined-set-2016/4x6m/4x6m_pocket.pdb
REMARK  231 active torsions:
REMARK  status: ('A' for Active; 'I' for Inactive)
REMARK    1  A    between atoms: _1  and  _5
REMARK    2  A    between atoms: _5  and  _6
REMARK    3  A    between atoms: _5  and  _8
REMARK    4  A    between atoms: _8  and  _9
REMARK    5  A    between atoms: _12  and  _14
REMARK    6  A    between atoms: _14  and  _15
REMARK    7  A    between atoms: _14  and  _17
REMARK    8  A    between atoms: _20  and  _22
REMARK    9  A    between atoms: _22  and  _23
REMARK   10  A    between atoms: _22  and  _25
REMARK   11  A    between atoms: _25  and  _26
REMARK   12  A    between atoms: _29  and  _31
REMARK   13  A    between atoms: _31  and  _32
REMARK   14  A    between atoms: _31  and  _34
REMARK   15  A    between atoms: _34  and  _35
REMARK   16  A    between atoms: _40  and  _42
REMARK   17  A    between atoms: _42  and  _43
REMARK   18  A    between atoms: _42  and  _45
REMARK   19  A    between atoms: _45  and  _46
REMARK   20  A    between atoms: _49  and  _51
REMARK   21  A    between atoms: _51  and  _52
REMARK   22  A    between atoms: _51  and  _54
REMARK   23  A    between atoms: _54  and  _55
REMARK   24  A    between atoms: _58  and  _60
REMARK   25  A    between atoms: _60  and  _61
REMARK   26  A    between atoms: _60  and  _63
REMARK   27  A    between atoms: _63  and  _64
REMARK   28  A    between atoms: _64  and  _65
REMARK   29  A    between atoms: _70  and  _72
REMARK   30  A    between atoms: _72  and  _73
REMARK   31  A    between atoms: _72  and  _75
REMARK   32  A    between atoms: _75  and  _76
REMARK   33  A    between atoms: _76  and  _77
REMARK   34  A    between atoms: _77  and  _78
REMARK   35  A    between atoms: _87  and  _89
REMARK   36  A    between atoms: _89  and  _90
REMARK   37  A    between atoms: _89  and  _92
REMARK   38  A    between atoms: _92  and  _93
REMARK   39  A    between atoms: _98  and  _100
REMARK   40  A    between atoms: _100  and  _101
REMARK   41  A    between atoms: _100  and  _103
REMARK   42  A    between atoms: _103  and  _104
REMARK   43  A    between atoms: _107  and  _109
REMARK   44  A    between atoms: _109  and  _110
REMARK   45  A    between atoms: _109  and  _112
REMARK   46  A    between atoms: _112  and  _113
REMARK   47  A    between atoms: _113  and  _148
REMARK   48  A    between atoms: _114  and  _116
REMARK   49  A    between atoms: _116  and  _117
REMARK   50  A    between atoms: _119  and  _121
REMARK   51  A    between atoms: _121  and  _122
REMARK   52  A    between atoms: _125  and  _127
REMARK   53  A    between atoms: _127  and  _128
REMARK   54  A    between atoms: _131  and  _133
REMARK   55  A    between atoms: _133  and  _134
REMARK   56  A    between atoms: _133  and  _136
REMARK   57  A    between atoms: _136  and  _137
REMARK   58  A    between atoms: _142  and  _144
REMARK   59  A    between atoms: _144  and  _145
REMARK   60  A    between atoms: _144  and  _147
REMARK   61  A    between atoms: _147  and  _148
REMARK   62  A    between atoms: _149  and  _151
REMARK   63  A    between atoms: _151  and  _152
REMARK   64  A    between atoms: _151  and  _154
REMARK   65  A    between atoms: _154  and  _155
REMARK   66  A    between atoms: _161  and  _163
REMARK   67  A    between atoms: _163  and  _164
REMARK   68  A    between atoms: _163  and  _166
REMARK   69  A    between atoms: _166  and  _167
REMARK   70  A    between atoms: _172  and  _173
REMARK   71  A    between atoms: _175  and  _177
REMARK   72  A    between atoms: _177  and  _178
REMARK   73  A    between atoms: _177  and  _180
REMARK   74  A    between atoms: _183  and  _185
REMARK   75  A    between atoms: _185  and  _186
REMARK   76  A    between atoms: _189  and  _191
REMARK   77  A    between atoms: _191  and  _192
REMARK   78  A    between atoms: _191  and  _194
REMARK   79  A    between atoms: _194  and  _195
REMARK   80  A    between atoms: _198  and  _200
REMARK   81  A    between atoms: _200  and  _201
REMARK   82  A    between atoms: _200  and  _203
REMARK   83  A    between atoms: _206  and  _208
REMARK   84  A    between atoms: _208  and  _209
REMARK   85  A    between atoms: _208  and  _211
REMARK   86  A    between atoms: _211  and  _212
REMARK   87  A    between atoms: _222  and  _224
REMARK   88  A    between atoms: _224  and  _225
REMARK   89  A    between atoms: _227  and  _229
REMARK   90  A    between atoms: _229  and  _230
REMARK   91  A    between atoms: _229  and  _232
REMARK   92  A    between atoms: _232  and  _233
REMARK   93  A    between atoms: _238  and  _239
REMARK   94  A    between atoms: _241  and  _243
REMARK   95  A    between atoms: _243  and  _244
REMARK   96  A    between atoms: _243  and  _246
REMARK   97  A    between atoms: _246  and  _247
REMARK   98  A    between atoms: _250  and  _252
REMARK   99  A    between atoms: _252  and  _253
REMARK  100  A    between atoms: _252  and  _255
REMARK  101  A    between atoms: _255  and  _256
REMARK  102  A    between atoms: _259  and  _261
REMARK  103  A    between atoms: _261  and  _262
REMARK  104  A    between atoms: _261  and  _264
REMARK  105  A    between atoms: _264  and  _265
REMARK  106  A    between atoms: _265  and  _266
REMARK  107  A    between atoms: _266  and  _267
REMARK  108  A    between atoms: _267  and  _268
REMARK  109  A    between atoms: _272  and  _274
REMARK  110  A    between atoms: _274  and  _275
REMARK  111  A    between atoms: _274  and  _277
REMARK  112  A    between atoms: _277  and  _278
REMARK  113  A    between atoms: _281  and  _283
REMARK  114  A    between atoms: _283  and  _284
REMARK  115  A    between atoms: _283  and  _286
REMARK  116  A    between atoms: _286  and  _287
REMARK  117  A    between atoms: _287  and  _288
REMARK  118  A    between atoms: _293  and  _295
REMARK  119  A    between atoms: _295  and  _296
REMARK  120  A    between atoms: _295  and  _298
REMARK  121  A    between atoms: _298  and  _299
REMARK  122  A    between atoms: _304  and  _305
REMARK  123  A    between atoms: _307  and  _309
REMARK  124  A    between atoms: _309  and  _310
REMARK  125  A    between atoms: _309  and  _312
REMARK  126  A    between atoms: _312  and  _313
REMARK  127  A    between atoms: _316  and  _318
REMARK  128  A    between atoms: _318  and  _319
REMARK  129  A    between atoms: _318  and  _321
REMARK  130  A    between atoms: _323  and  _325
REMARK  131  A    between atoms: _325  and  _326
REMARK  132  A    between atoms: _329  and  _331
REMARK  133  A    between atoms: _331  and  _332
REMARK  134  A    between atoms: _331  and  _334
REMARK  135  A    between atoms: _334  and  _335
REMARK  136  A    between atoms: _335  and  _336
REMARK  137  A    between atoms: _336  and  _337
REMARK  138  A    between atoms: _337  and  _338
REMARK  139  A    between atoms: _342  and  _344
REMARK  140  A    between atoms: _344  and  _345
REMARK  141  A    between atoms: _344  and  _347
REMARK  142  A    between atoms: _347  and  _348
REMARK  143  A    between atoms: _351  and  _353
REMARK  144  A    between atoms: _353  and  _354
REMARK  145  A    between atoms: _357  and  _359
REMARK  146  A    between atoms: _359  and  _360
REMARK  147  A    between atoms: _359  and  _362
REMARK  148  A    between atoms: _362  and  _363
REMARK  149  A    between atoms: _363  and  _486
REMARK  150  A    between atoms: _364  and  _366
REMARK  151  A    between atoms: _366  and  _367
REMARK  152  A    between atoms: _366  and  _369
REMARK  153  A    between atoms: _369  and  _370
REMARK  154  A    between atoms: _370  and  _371
REMARK  155  A    between atoms: _371  and  _372
REMARK  156  A    between atoms: _372  and  _373
REMARK  157  A    between atoms: _377  and  _379
REMARK  158  A    between atoms: _379  and  _380
REMARK  159  A    between atoms: _382  and  _384
REMARK  160  A    between atoms: _384  and  _385
REMARK  161  A    between atoms: _384  and  _387
REMARK  162  A    between atoms: _387  and  _388
REMARK  163  A    between atoms: _391  and  _393
REMARK  164  A    between atoms: _393  and  _394
REMARK  165  A    between atoms: _393  and  _396
REMARK  166  A    between atoms: _396  and  _397
REMARK  167  A    between atoms: _399  and  _401
REMARK  168  A    between atoms: _401  and  _402
REMARK  169  A    between atoms: _404  and  _406
REMARK  170  A    between atoms: _406  and  _407
REMARK  171  A    between atoms: _409  and  _411
REMARK  172  A    between atoms: _411  and  _412
REMARK  173  A    between atoms: _411  and  _414
REMARK  174  A    between atoms: _414  and  _415
REMARK  175  A    between atoms: _418  and  _420
REMARK  176  A    between atoms: _420  and  _421
REMARK  177  A    between atoms: _420  and  _423
REMARK  178  A    between atoms: _423  and  _424
REMARK  179  A    between atoms: _427  and  _429
REMARK  180  A    between atoms: _429  and  _430
REMARK  181  A    between atoms: _429  and  _432
REMARK  182  A    between atoms: _432  and  _433
REMARK  183  A    between atoms: _436  and  _438
REMARK  184  A    between atoms: _438  and  _439
REMARK  185  A    between atoms: _438  and  _441
REMARK  186  A    between atoms: _441  and  _442
REMARK  187  A    between atoms: _444  and  _446
REMARK  188  A    between atoms: _446  and  _447
REMARK  189  A    between atoms: _446  and  _449
REMARK  190  A    between atoms: _449  and  _450
REMARK  191  A    between atoms: _460  and  _462
REMARK  192  A    between atoms: _462  and  _463
REMARK  193  A    between atoms: _465  and  _467
REMARK  194  A    between atoms: _467  and  _468
REMARK  195  A    between atoms: _467  and  _470
REMARK  196  A    between atoms: _470  and  _471
REMARK  197  A    between atoms: _471  and  _472
REMARK  198  A    between atoms: _475  and  _477
REMARK  199  A    between atoms: _477  and  _478
REMARK  200  A    between atoms: _480  and  _482
REMARK  201  A    between atoms: _482  and  _483
REMARK  202  A    between atoms: _482  and  _485
REMARK  203  A    between atoms: _485  and  _486
REMARK  204  A    between atoms: _487  and  _489
REMARK  205  A    between atoms: _489  and  _490
REMARK  206  A    between atoms: _493  and  _495
REMARK  207  A    between atoms: _495  and  _496
REMARK  208  A    between atoms: _495  and  _498
REMARK  209  A    between atoms: _498  and  _499
REMARK  210  A    between atoms: _499  and  _500
REMARK  211  A    between atoms: _505  and  _507
REMARK  212  A    between atoms: _507  and  _508
REMARK  213  A    between atoms: _507  and  _510
REMARK  214  A    between atoms: _510  and  _511
REMARK  215  A    between atoms: _511  and  _512
REMARK  216  A    between atoms: _512  and  _513
REMARK  217  A    between atoms: _523  and  _524
REMARK  218  A    between atoms: _529  and  _531
REMARK  219  A    between atoms: _531  and  _532
REMARK  220  A    between atoms: _534  and  _536
REMARK  221  A    between atoms: _536  and  _537
REMARK  222  A    between atoms: _536  and  _539
REMARK  223  A    between atoms: _542  and  _544
REMARK  224  A    between atoms: _544  and  _545
REMARK  225  A    between atoms: _544  and  _547
REMARK  226  A    between atoms: _547  and  _548
REMARK  227  A    between atoms: _553  and  _554
REMARK  228  A    between atoms: _556  and  _558
REMARK  229  A    between atoms: _558  and  _559
REMARK  230  A    between atoms: _558  and  _561
REMARK  231  A    between atoms: _561  and  _562
REMARK                            x       y       z     vdW  Elec       q    Type
REMARK                         _______ _______ _______ _____ _____    ______ ____
ROOT
ATOM      1  O   HOH     1      50.979 -23.697  31.172  0.00  0.00    +0.000 OA
ENDROOT
TORSDOF 0
REMARK  Name = ../refined-set-2016/4x6m/4x6m_pocket.pdb
REMARK  231 active torsions:
REMARK  status: ('A' for Active; 'I' for Inactive)
REMARK    1  A    between atoms: _1  and  _5
REMARK    2  A    between atoms: _5  and  _6
REMARK    3  A    between atoms: _5  and  _8
REMARK    4  A    between atoms: _8  and  _9
REMARK    5  A    between atoms: _12  and  _14
REMARK    6  A    between atoms: _14  and  _15
REMARK    7  A    between atoms: _14  and  _17
REMARK    8  A    between atoms: _20  and  _22
REMARK    9  A    between atoms: _22  and  _23
REMARK   10  A    between atoms: _22  and  _25
REMARK   11  A    between atoms: _25  and  _26
REMARK   12  A    between atoms: _29  and  _31
REMARK   13  A    between atoms: _31  and  _32
REMARK   14  A    between atoms: _31  and  _34
REMARK   15  A    between atoms: _34  and  _35
REMARK   16  A    between atoms: _40  and  _42
REMARK   17  A    between atoms: _42  and  _43
REMARK   18  A    between atoms: _42  and  _45
REMARK   19  A    between atoms: _45  and  _46
REMARK   20  A    between atoms: _49  and  _51
REMARK   21  A    between atoms: _51  and  _52
REMARK   22  A    between atoms: _51  and  _54
REMARK   23  A    between atoms: _54  and  _55
REMARK   24  A    between atoms: _58  and  _60
REMARK   25  A    between atoms: _60  and  _61
REMARK   26  A    between atoms: _60  and  _63
REMARK   27  A    between atoms: _63  and  _64
REMARK   28  A    between atoms: _64  and  _65
REMARK   29  A    between atoms: _70  and  _72
REMARK   30  A    between atoms: _72  and  _73
REMARK   31  A    between atoms: _72  and  _75
REMARK   32  A    between atoms: _75  and  _76
REMARK   33  A    between atoms: _76  and  _77
REMARK   34  A    between atoms: _77  and  _78
REMARK   35  A    between atoms: _87  and  _89
REMARK   36  A    between atoms: _89  and  _90
REMARK   37  A    between atoms: _89  and  _92
REMARK   38  A    between atoms: _92  and  _93
REMARK   39  A    between atoms: _98  and  _100
REMARK   40  A    between atoms: _100  and  _101
REMARK   41  A    between atoms: _100  and  _103
REMARK   42  A    between atoms: _103  and  _104
REMARK   43  A    between atoms: _107  and  _109
REMARK   44  A    between atoms: _109  and  _110
REMARK   45  A    between atoms: _109  and  _112
REMARK   46  A    between atoms: _112  and  _113
REMARK   47  A    between atoms: _113  and  _148
REMARK   48  A    between atoms: _114  and  _116
REMARK   49  A    between atoms: _116  and  _117
REMARK   50  A    between atoms: _119  and  _121
REMARK   51  A    between atoms: _121  and  _122
REMARK   52  A    between atoms: _125  and  _127
REMARK   53  A    between atoms: _127  and  _128
REMARK   54  A    between atoms: _131  and  _133
REMARK   55  A    between atoms: _133  and  _134
REMARK   56  A    between atoms: _133  and  _136
REMARK   57  A    between atoms: _136  and  _137
REMARK   58  A    between atoms: _142  and  _144
REMARK   59  A    between atoms: _144  and  _145
REMARK   60  A    between atoms: _144  and  _147
REMARK   61  A    between atoms: _147  and  _148
REMARK   62  A    between atoms: _149  and  _151
REMARK   63  A    between atoms: _151  and  _152
REMARK   64  A    between atoms: _151  and  _154
REMARK   65  A    between atoms: _154  and  _155
REMARK   66  A    between atoms: _161  and  _163
REMARK   67  A    between atoms: _163  and  _164
REMARK   68  A    between atoms: _163  and  _166
REMARK   69  A    between atoms: _166  and  _167
REMARK   70  A    between atoms: _172  and  _173
REMARK   71  A    between atoms: _175  and  _177
REMARK   72  A    between atoms: _177  and  _178
REMARK   73  A    between atoms: _177  and  _180
REMARK   74  A    between atoms: _183  and  _185
REMARK   75  A    between atoms: _185  and  _186
REMARK   76  A    between atoms: _189  and  _191
REMARK   77  A    between atoms: _191  and  _192
REMARK   78  A    between atoms: _191  and  _194
REMARK   79  A    between atoms: _194  and  _195
REMARK   80  A    between atoms: _198  and  _200
REMARK   81  A    between atoms: _200  and  _201
REMARK   82  A    between atoms: _200  and  _203
REMARK   83  A    between atoms: _206  and  _208
REMARK   84  A    between atoms: _208  and  _209
REMARK   85  A    between atoms: _208  and  _211
REMARK   86  A    between atoms: _211  and  _212
REMARK   87  A    between atoms: _222  and  _224
REMARK   88  A    between atoms: _224  and  _225
REMARK   89  A    between atoms: _227  and  _229
REMARK   90  A    between atoms: _229  and  _230
REMARK   91  A    between atoms: _229  and  _232
REMARK   92  A    between atoms: _232  and  _233
REMARK   93  A    between atoms: _238  and  _239
REMARK   94  A    between atoms: _241  and  _243
REMARK   95  A    between atoms: _243  and  _244
REMARK   96  A    between atoms: _243  and  _246
REMARK   97  A    between atoms: _246  and  _247
REMARK   98  A    between atoms: _250  and  _252
REMARK   99  A    between atoms: _252  and  _253
REMARK  100  A    between atoms: _252  and  _255
REMARK  101  A    between atoms: _255  and  _256
REMARK  102  A    between atoms: _259  and  _261
REMARK  103  A    between atoms: _261  and  _262
REMARK  104  A    between atoms: _261  and  _264
REMARK  105  A    between atoms: _264  and  _265
REMARK  106  A    between atoms: _265  and  _266
REMARK  107  A    between atoms: _266  and  _267
REMARK  108  A    between atoms: _267  and  _268
REMARK  109  A    between atoms: _272  and  _274
REMARK  110  A    between atoms: _274  and  _275
REMARK  111  A    between atoms: _274  and  _277
REMARK  112  A    between atoms: _277  and  _278
REMARK  113  A    between atoms: _281  and  _283
REMARK  114  A    between atoms: _283  and  _284
REMARK  115  A    between atoms: _283  and  _286
REMARK  116  A    between atoms: _286  and  _287
REMARK  117  A    between atoms: _287  and  _288
REMARK  118  A    between atoms: _293  and  _295
REMARK  119  A    between atoms: _295  and  _296
REMARK  120  A    between atoms: _295  and  _298
REMARK  121  A    between atoms: _298  and  _299
REMARK  122  A    between atoms: _304  and  _305
REMARK  123  A    between atoms: _307  and  _309
REMARK  124  A    between atoms: _309  and  _310
REMARK  125  A    between atoms: _309  and  _312
REMARK  126  A    between atoms: _312  and  _313
REMARK  127  A    between atoms: _316  and  _318
REMARK  128  A    between atoms: _318  and  _319
REMARK  129  A    between atoms: _318  and  _321
REMARK  130  A    between atoms: _323  and  _325
REMARK  131  A    between atoms: _325  and  _326
REMARK  132  A    between atoms: _329  and  _331
REMARK  133  A    between atoms: _331  and  _332
REMARK  134  A    between atoms: _331  and  _334
REMARK  135  A    between atoms: _334  and  _335
REMARK  136  A    between atoms: _335  and  _336
REMARK  137  A    between atoms: _336  and  _337
REMARK  138  A    between atoms: _337  and  _338
REMARK  139  A    between atoms: _342  and  _344
REMARK  140  A    between atoms: _344  and  _345
REMARK  141  A    between atoms: _344  and  _347
REMARK  142  A    between atoms: _347  and  _348
REMARK  143  A    between atoms: _351  and  _353
REMARK  144  A    between atoms: _353  and  _354
REMARK  145  A    between atoms: _357  and  _359
REMARK  146  A    between atoms: _359  and  _360
REMARK  147  A    between atoms: _359  and  _362
REMARK  148  A    between atoms: _362  and  _363
REMARK  149  A    between atoms: _363  and  _486
REMARK  150  A    between atoms: _364  and  _366
REMARK  151  A    between atoms: _366  and  _367
REMARK  152  A    between atoms: _366  and  _369
REMARK  153  A    between atoms: _369  and  _370
REMARK  154  A    between atoms: _370  and  _371
REMARK  155  A    between atoms: _371  and  _372
REMARK  156  A    between atoms: _372  and  _373
REMARK  157  A    between atoms: _377  and  _379
REMARK  158  A    between atoms: _379  and  _380
REMARK  159  A    between atoms: _382  and  _384
REMARK  160  A    between atoms: _384  and  _385
REMARK  161  A    between atoms: _384  and  _387
REMARK  162  A    between atoms: _387  and  _388
REMARK  163  A    between atoms: _391  and  _393
REMARK  164  A    between atoms: _393  and  _394
REMARK  165  A    between atoms: _393  and  _396
REMARK  166  A    between atoms: _396  and  _397
REMARK  167  A    between atoms: _399  and  _401
REMARK  168  A    between atoms: _401  and  _402
REMARK  169  A    between atoms: _404  and  _406
REMARK  170  A    between atoms: _406  and  _407
REMARK  171  A    between atoms: _409  and  _411
REMARK  172  A    between atoms: _411  and  _412
REMARK  173  A    between atoms: _411  and  _414
REMARK  174  A    between atoms: _414  and  _415
REMARK  175  A    between atoms: _418  and  _420
REMARK  176  A    between atoms: _420  and  _421
REMARK  177  A    between atoms: _420  and  _423
REMARK  178  A    between atoms: _423  and  _424
REMARK  179  A    between atoms: _427  and  _429
REMARK  180  A    between atoms: _429  and  _430
REMARK  181  A    between atoms: _429  and  _432
REMARK  182  A    between atoms: _432  and  _433
REMARK  183  A    between atoms: _436  and  _438
REMARK  184  A    between atoms: _438  and  _439
REMARK  185  A    between atoms: _438  and  _441
REMARK  186  A    between atoms: _441  and  _442
REMARK  187  A    between atoms: _444  and  _446
REMARK  188  A    between atoms: _446  and  _447
REMARK  189  A    between atoms: _446  and  _449
REMARK  190  A    between atoms: _449  and  _450
REMARK  191  A    between atoms: _460  and  _462
REMARK  192  A    between atoms: _462  and  _463
REMARK  193  A    between atoms: _465  and  _467
REMARK  194  A    between atoms: _467  and  _468
REMARK  195  A    between atoms: _467  and  _470
REMARK  196  A    between atoms: _470  and  _471
REMARK  197  A    between atoms: _471  and  _472
REMARK  198  A    between atoms: _475  and  _477
REMARK  199  A    between atoms: _477  and  _478
REMARK  200  A    between atoms: _480  and  _482
REMARK  201  A    between atoms: _482  and  _483
REMARK  202  A    between atoms: _482  and  _485
REMARK  203  A    between atoms: _485  and  _486
REMARK  204  A    between atoms: _487  and  _489
REMARK  205  A    between atoms: _489  and  _490
REMARK  206  A    between atoms: _493  and  _495
REMARK  207  A    between atoms: _495  and  _496
REMARK  208  A    between atoms: _495  and  _498
REMARK  209  A    between atoms: _498  and  _499
REMARK  210  A    between atoms: _499  and  _500
REMARK  211  A    between atoms: _505  and  _507
REMARK  212  A    between atoms: _507  and  _508
REMARK  213  A    between atoms: _507  and  _510
REMARK  214  A    between atoms: _510  and  _511
REMARK  215  A    between atoms: _511  and  _512
REMARK  216  A    between atoms: _512  and  _513
REMARK  217  A    between atoms: _523  and  _524
REMARK  218  A    between atoms: _529  and  _531
REMARK  219  A    between atoms: _531  and  _532
REMARK  220  A    between atoms: _534  and  _536
REMARK  221  A    between atoms: _536  and  _537
REMARK  222  A    between atoms: _536  and  _539
REMARK  223  A    between atoms: _542  and  _544
REMARK  224  A    between atoms: _544  and  _545
REMARK  225  A    between atoms: _544  and  _547
REMARK  226  A    between atoms: _547  and  _548
REMARK  227  A    between atoms: _553  and  _554
REMARK  228  A    between atoms: _556  and  _558
REMARK  229  A    between atoms: _558  and  _559
REMARK  230  A    between atoms: _558  and  _561
REMARK  231  A    between atoms: _561  and  _562
REMARK                            x       y       z     vdW  Elec       q    Type
REMARK                         _______ _______ _______ _____ _____    ______ ____
ROOT
ATOM      1  O   HOH     1      51.518 -18.830  29.575  0.00  0.00    +0.000 OA
ENDROOT
TORSDOF 0
REMARK  Name = ../refined-set-2016/4x6m/4x6m_pocket.pdb
REMARK  231 active torsions:
REMARK  status: ('A' for Active; 'I' for Inactive)
REMARK    1  A    between atoms: _1  and  _5
REMARK    2  A    between atoms: _5  and  _6
REMARK    3  A    between atoms: _5  and  _8
REMARK    4  A    between atoms: _8  and  _9
REMARK    5  A    between atoms: _12  and  _14
REMARK    6  A    between atoms: _14  and  _15
REMARK    7  A    between atoms: _14  and  _17
REMARK    8  A    between atoms: _20  and  _22
REMARK    9  A    between atoms: _22  and  _23
REMARK   10  A    between atoms: _22  and  _25
REMARK   11  A    between atoms: _25  and  _26
REMARK   12  A    between atoms: _29  and  _31
REMARK   13  A    between atoms: _31  and  _32
REMARK   14  A    between atoms: _31  and  _34
REMARK   15  A    between atoms: _34  and  _35
REMARK   16  A    between atoms: _40  and  _42
REMARK   17  A    between atoms: _42  and  _43
REMARK   18  A    between atoms: _42  and  _45
REMARK   19  A    between atoms: _45  and  _46
REMARK   20  A    between atoms: _49  and  _51
REMARK   21  A    between atoms: _51  and  _52
REMARK   22  A    between atoms: _51  and  _54
REMARK   23  A    between atoms: _54  and  _55
REMARK   24  A    between atoms: _58  and  _60
REMARK   25  A    between atoms: _60  and  _61
REMARK   26  A    between atoms: _60  and  _63
REMARK   27  A    between atoms: _63  and  _64
REMARK   28  A    between atoms: _64  and  _65
REMARK   29  A    between atoms: _70  and  _72
REMARK   30  A    between atoms: _72  and  _73
REMARK   31  A    between atoms: _72  and  _75
REMARK   32  A    between atoms: _75  and  _76
REMARK   33  A    between atoms: _76  and  _77
REMARK   34  A    between atoms: _77  and  _78
REMARK   35  A    between atoms: _87  and  _89
REMARK   36  A    between atoms: _89  and  _90
REMARK   37  A    between atoms: _89  and  _92
REMARK   38  A    between atoms: _92  and  _93
REMARK   39  A    between atoms: _98  and  _100
REMARK   40  A    between atoms: _100  and  _101
REMARK   41  A    between atoms: _100  and  _103
REMARK   42  A    between atoms: _103  and  _104
REMARK   43  A    between atoms: _107  and  _109
REMARK   44  A    between atoms: _109  and  _110
REMARK   45  A    between atoms: _109  and  _112
REMARK   46  A    between atoms: _112  and  _113
REMARK   47  A    between atoms: _113  and  _148
REMARK   48  A    between atoms: _114  and  _116
REMARK   49  A    between atoms: _116  and  _117
REMARK   50  A    between atoms: _119  and  _121
REMARK   51  A    between atoms: _121  and  _122
REMARK   52  A    between atoms: _125  and  _127
REMARK   53  A    between atoms: _127  and  _128
REMARK   54  A    between atoms: _131  and  _133
REMARK   55  A    between atoms: _133  and  _134
REMARK   56  A    between atoms: _133  and  _136
REMARK   57  A    between atoms: _136  and  _137
REMARK   58  A    between atoms: _142  and  _144
REMARK   59  A    between atoms: _144  and  _145
REMARK   60  A    between atoms: _144  and  _147
REMARK   61  A    between atoms: _147  and  _148
REMARK   62  A    between atoms: _149  and  _151
REMARK   63  A    between atoms: _151  and  _152
REMARK   64  A    between atoms: _151  and  _154
REMARK   65  A    between atoms: _154  and  _155
REMARK   66  A    between atoms: _161  and  _163
REMARK   67  A    between atoms: _163  and  _164
REMARK   68  A    between atoms: _163  and  _166
REMARK   69  A    between atoms: _166  and  _167
REMARK   70  A    between atoms: _172  and  _173
REMARK   71  A    between atoms: _175  and  _177
REMARK   72  A    between atoms: _177  and  _178
REMARK   73  A    between atoms: _177  and  _180
REMARK   74  A    between atoms: _183  and  _185
REMARK   75  A    between atoms: _185  and  _186
REMARK   76  A    between atoms: _189  and  _191
REMARK   77  A    between atoms: _191  and  _192
REMARK   78  A    between atoms: _191  and  _194
REMARK   79  A    between atoms: _194  and  _195
REMARK   80  A    between atoms: _198  and  _200
REMARK   81  A    between atoms: _200  and  _201
REMARK   82  A    between atoms: _200  and  _203
REMARK   83  A    between atoms: _206  and  _208
REMARK   84  A    between atoms: _208  and  _209
REMARK   85  A    between atoms: _208  and  _211
REMARK   86  A    between atoms: _211  and  _212
REMARK   87  A    between atoms: _222  and  _224
REMARK   88  A    between atoms: _224  and  _225
REMARK   89  A    between atoms: _227  and  _229
REMARK   90  A    between atoms: _229  and  _230
REMARK   91  A    between atoms: _229  and  _232
REMARK   92  A    between atoms: _232  and  _233
REMARK   93  A    between atoms: _238  and  _239
REMARK   94  A    between atoms: _241  and  _243
REMARK   95  A    between atoms: _243  and  _244
REMARK   96  A    between atoms: _243  and  _246
REMARK   97  A    between atoms: _246  and  _247
REMARK   98  A    between atoms: _250  and  _252
REMARK   99  A    between atoms: _252  and  _253
REMARK  100  A    between atoms: _252  and  _255
REMARK  101  A    between atoms: _255  and  _256
REMARK  102  A    between atoms: _259  and  _261
REMARK  103  A    between atoms: _261  and  _262
REMARK  104  A    between atoms: _261  and  _264
REMARK  105  A    between atoms: _264  and  _265
REMARK  106  A    between atoms: _265  and  _266
REMARK  107  A    between atoms: _266  and  _267
REMARK  108  A    between atoms: _267  and  _268
REMARK  109  A    between atoms: _272  and  _274
REMARK  110  A    between atoms: _274  and  _275
REMARK  111  A    between atoms: _274  and  _277
REMARK  112  A    between atoms: _277  and  _278
REMARK  113  A    between atoms: _281  and  _283
REMARK  114  A    between atoms: _283  and  _284
REMARK  115  A    between atoms: _283  and  _286
REMARK  116  A    between atoms: _286  and  _287
REMARK  117  A    between atoms: _287  and  _288
REMARK  118  A    between atoms: _293  and  _295
REMARK  119  A    between atoms: _295  and  _296
REMARK  120  A    between atoms: _295  and  _298
REMARK  121  A    between atoms: _298  and  _299
REMARK  122  A    between atoms: _304  and  _305
REMARK  123  A    between atoms: _307  and  _309
REMARK  124  A    between atoms: _309  and  _310
REMARK  125  A    between atoms: _309  and  _312
REMARK  126  A    between atoms: _312  and  _313
REMARK  127  A    between atoms: _316  and  _318
REMARK  128  A    between atoms: _318  and  _319
REMARK  129  A    between atoms: _318  and  _321
REMARK  130  A    between atoms: _323  and  _325
REMARK  131  A    between atoms: _325  and  _326
REMARK  132  A    between atoms: _329  and  _331
REMARK  133  A    between atoms: _331  and  _332
REMARK  134  A    between atoms: _331  and  _334
REMARK  135  A    between atoms: _334  and  _335
REMARK  136  A    between atoms: _335  and  _336
REMARK  137  A    between atoms: _336  and  _337
REMARK  138  A    between atoms: _337  and  _338
REMARK  139  A    between atoms: _342  and  _344
REMARK  140  A    between atoms: _344  and  _345
REMARK  141  A    between atoms: _344  and  _347
REMARK  142  A    between atoms: _347  and  _348
REMARK  143  A    between atoms: _351  and  _353
REMARK  144  A    between atoms: _353  and  _354
REMARK  145  A    between atoms: _357  and  _359
REMARK  146  A    between atoms: _359  and  _360
REMARK  147  A    between atoms: _359  and  _362
REMARK  148  A    between atoms: _362  and  _363
REMARK  149  A    between atoms: _363  and  _486
REMARK  150  A    between atoms: _364  and  _366
REMARK  151  A    between atoms: _366  and  _367
REMARK  152  A    between atoms: _366  and  _369
REMARK  153  A    between atoms: _369  and  _370
REMARK  154  A    between atoms: _370  and  _371
REMARK  155  A    between atoms: _371  and  _372
REMARK  156  A    between atoms: _372  and  _373
REMARK  157  A    between atoms: _377  and  _379
REMARK  158  A    between atoms: _379  and  _380
REMARK  159  A    between atoms: _382  and  _384
REMARK  160  A    between atoms: _384  and  _385
REMARK  161  A    between atoms: _384  and  _387
REMARK  162  A    between atoms: _387  and  _388
REMARK  163  A    between atoms: _391  and  _393
REMARK  164  A    between atoms: _393  and  _394
REMARK  165  A    between atoms: _393  and  _396
REMARK  166  A    between atoms: _396  and  _397
REMARK  167  A    between atoms: _399  and  _401
REMARK  168  A    between atoms: _401  and  _402
REMARK  169  A    between atoms: _404  and  _406
REMARK  170  A    between atoms: _406  and  _407
REMARK  171  A    between atoms: _409  and  _411
REMARK  172  A    between atoms: _411  and  _412
REMARK  173  A    between atoms: _411  and  _414
REMARK  174  A    between atoms: _414  and  _415
REMARK  175  A    between atoms: _418  and  _420
REMARK  176  A    between atoms: _420  and  _421
REMARK  177  A    between atoms: _420  and  _423
REMARK  178  A    between atoms: _423  and  _424
REMARK  179  A    between atoms: _427  and  _429
REMARK  180  A    between atoms: _429  and  _430
REMARK  181  A    between atoms: _429  and  _432
REMARK  182  A    between atoms: _432  and  _433
REMARK  183  A    between atoms: _436  and  _438
REMARK  184  A    between atoms: _438  and  _439
REMARK  185  A    between atoms: _438  and  _441
REMARK  186  A    between atoms: _441  and  _442
REMARK  187  A    between atoms: _444  and  _446
REMARK  188  A    between atoms: _446  and  _447
REMARK  189  A    between atoms: _446  and  _449
REMARK  190  A    between atoms: _449  and  _450
REMARK  191  A    between atoms: _460  and  _462
REMARK  192  A    between atoms: _462  and  _463
REMARK  193  A    between atoms: _465  and  _467
REMARK  194  A    between atoms: _467  and  _468
REMARK  195  A    between atoms: _467  and  _470
REMARK  196  A    between atoms: _470  and  _471
REMARK  197  A    between atoms: _471  and  _472
REMARK  198  A    between atoms: _475  and  _477
REMARK  199  A    between atoms: _477  and  _478
REMARK  200  A    between atoms: _480  and  _482
REMARK  201  A    between atoms: _482  and  _483
REMARK  202  A    between atoms: _482  and  _485
REMARK  203  A    between atoms: _485  and  _486
REMARK  204  A    between atoms: _487  and  _489
REMARK  205  A    between atoms: _489  and  _490
REMARK  206  A    between atoms: _493  and  _495
REMARK  207  A    between atoms: _495  and  _496
REMARK  208  A    between atoms: _495  and  _498
REMARK  209  A    between atoms: _498  and  _499
REMARK  210  A    between atoms: _499  and  _500
REMARK  211  A    between atoms: _505  and  _507
REMARK  212  A    between atoms: _507  and  _508
REMARK  213  A    between atoms: _507  and  _510
REMARK  214  A    between atoms: _510  and  _511
REMARK  215  A    between atoms: _511  and  _512
REMARK  216  A    between atoms: _512  and  _513
REMARK  217  A    between atoms: _523  and  _524
REMARK  218  A    between atoms: _529  and  _531
REMARK  219  A    between atoms: _531  and  _532
REMARK  220  A    between atoms: _534  and  _536
REMARK  221  A    between atoms: _536  and  _537
REMARK  222  A    between atoms: _536  and  _539
REMARK  223  A    between atoms: _542  and  _544
REMARK  224  A    between atoms: _544  and  _545
REMARK  225  A    between atoms: _544  and  _547
REMARK  226  A    between atoms: _547  and  _548
REMARK  227  A    between atoms: _553  and  _554
REMARK  228  A    between atoms: _556  and  _558
REMARK  229  A    between atoms: _558  and  _559
REMARK  230  A    between atoms: _558  and  _561
REMARK  231  A    between atoms: _561  and  _562
REMARK                            x       y       z     vdW  Elec       q    Type
REMARK                         _______ _______ _______ _____ _____    ______ ____
ROOT
ATOM      1  O   HOH     1      40.909 -16.120  24.531  0.00  0.00    +0.000 OA
ENDROOT
TORSDOF 0
REMARK  Name = ../refined-set-2016/4x6m/4x6m_pocket.pdb
REMARK  231 active torsions:
REMARK  status: ('A' for Active; 'I' for Inactive)
REMARK    1  A    between atoms: _1  and  _5
REMARK    2  A    between atoms: _5  and  _6
REMARK    3  A    between atoms: _5  and  _8
REMARK    4  A    between atoms: _8  and  _9
REMARK    5  A    between atoms: _12  and  _14
REMARK    6  A    between atoms: _14  and  _15
REMARK    7  A    between atoms: _14  and  _17
REMARK    8  A    between atoms: _20  and  _22
REMARK    9  A    between atoms: _22  and  _23
REMARK   10  A    between atoms: _22  and  _25
REMARK   11  A    between atoms: _25  and  _26
REMARK   12  A    between atoms: _29  and  _31
REMARK   13  A    between atoms: _31  and  _32
REMARK   14  A    between atoms: _31  and  _34
REMARK   15  A    between atoms: _34  and  _35
REMARK   16  A    between atoms: _40  and  _42
REMARK   17  A    between atoms: _42  and  _43
REMARK   18  A    between atoms: _42  and  _45
REMARK   19  A    between atoms: _45  and  _46
REMARK   20  A    between atoms: _49  and  _51
REMARK   21  A    between atoms: _51  and  _52
REMARK   22  A    between atoms: _51  and  _54
REMARK   23  A    between atoms: _54  and  _55
REMARK   24  A    between atoms: _58  and  _60
REMARK   25  A    between atoms: _60  and  _61
REMARK   26  A    between atoms: _60  and  _63
REMARK   27  A    between atoms: _63  and  _64
REMARK   28  A    between atoms: _64  and  _65
REMARK   29  A    between atoms: _70  and  _72
REMARK   30  A    between atoms: _72  and  _73
REMARK   31  A    between atoms: _72  and  _75
REMARK   32  A    between atoms: _75  and  _76
REMARK   33  A    between atoms: _76  and  _77
REMARK   34  A    between atoms: _77  and  _78
REMARK   35  A    between atoms: _87  and  _89
REMARK   36  A    between atoms: _89  and  _90
REMARK   37  A    between atoms: _89  and  _92
REMARK   38  A    between atoms: _92  and  _93
REMARK   39  A    between atoms: _98  and  _100
REMARK   40  A    between atoms: _100  and  _101
REMARK   41  A    between atoms: _100  and  _103
REMARK   42  A    between atoms: _103  and  _104
REMARK   43  A    between atoms: _107  and  _109
REMARK   44  A    between atoms: _109  and  _110
REMARK   45  A    between atoms: _109  and  _112
REMARK   46  A    between atoms: _112  and  _113
REMARK   47  A    between atoms: _113  and  _148
REMARK   48  A    between atoms: _114  and  _116
REMARK   49  A    between atoms: _116  and  _117
REMARK   50  A    between atoms: _119  and  _121
REMARK   51  A    between atoms: _121  and  _122
REMARK   52  A    between atoms: _125  and  _127
REMARK   53  A    between atoms: _127  and  _128
REMARK   54  A    between atoms: _131  and  _133
REMARK   55  A    between atoms: _133  and  _134
REMARK   56  A    between atoms: _133  and  _136
REMARK   57  A    between atoms: _136  and  _137
REMARK   58  A    between atoms: _142  and  _144
REMARK   59  A    between atoms: _144  and  _145
REMARK   60  A    between atoms: _144  and  _147
REMARK   61  A    between atoms: _147  and  _148
REMARK   62  A    between atoms: _149  and  _151
REMARK   63  A    between atoms: _151  and  _152
REMARK   64  A    between atoms: _151  and  _154
REMARK   65  A    between atoms: _154  and  _155
REMARK   66  A    between atoms: _161  and  _163
REMARK   67  A    between atoms: _163  and  _164
REMARK   68  A    between atoms: _163  and  _166
REMARK   69  A    between atoms: _166  and  _167
REMARK   70  A    between atoms: _172  and  _173
REMARK   71  A    between atoms: _175  and  _177
REMARK   72  A    between atoms: _177  and  _178
REMARK   73  A    between atoms: _177  and  _180
REMARK   74  A    between atoms: _183  and  _185
REMARK   75  A    between atoms: _185  and  _186
REMARK   76  A    between atoms: _189  and  _191
REMARK   77  A    between atoms: _191  and  _192
REMARK   78  A    between atoms: _191  and  _194
REMARK   79  A    between atoms: _194  and  _195
REMARK   80  A    between atoms: _198  and  _200
REMARK   81  A    between atoms: _200  and  _201
REMARK   82  A    between atoms: _200  and  _203
REMARK   83  A    between atoms: _206  and  _208
REMARK   84  A    between atoms: _208  and  _209
REMARK   85  A    between atoms: _208  and  _211
REMARK   86  A    between atoms: _211  and  _212
REMARK   87  A    between atoms: _222  and  _224
REMARK   88  A    between atoms: _224  and  _225
REMARK   89  A    between atoms: _227  and  _229
REMARK   90  A    between atoms: _229  and  _230
REMARK   91  A    between atoms: _229  and  _232
REMARK   92  A    between atoms: _232  and  _233
REMARK   93  A    between atoms: _238  and  _239
REMARK   94  A    between atoms: _241  and  _243
REMARK   95  A    between atoms: _243  and  _244
REMARK   96  A    between atoms: _243  and  _246
REMARK   97  A    between atoms: _246  and  _247
REMARK   98  A    between atoms: _250  and  _252
REMARK   99  A    between atoms: _252  and  _253
REMARK  100  A    between atoms: _252  and  _255
REMARK  101  A    between atoms: _255  and  _256
REMARK  102  A    between atoms: _259  and  _261
REMARK  103  A    between atoms: _261  and  _262
REMARK  104  A    between atoms: _261  and  _264
REMARK  105  A    between atoms: _264  and  _265
REMARK  106  A    between atoms: _265  and  _266
REMARK  107  A    between atoms: _266  and  _267
REMARK  108  A    between atoms: _267  and  _268
REMARK  109  A    between atoms: _272  and  _274
REMARK  110  A    between atoms: _274  and  _275
REMARK  111  A    between atoms: _274  and  _277
REMARK  112  A    between atoms: _277  and  _278
REMARK  113  A    between atoms: _281  and  _283
REMARK  114  A    between atoms: _283  and  _284
REMARK  115  A    between atoms: _283  and  _286
REMARK  116  A    between atoms: _286  and  _287
REMARK  117  A    between atoms: _287  and  _288
REMARK  118  A    between atoms: _293  and  _295
REMARK  119  A    between atoms: _295  and  _296
REMARK  120  A    between atoms: _295  and  _298
REMARK  121  A    between atoms: _298  and  _299
REMARK  122  A    between atoms: _304  and  _305
REMARK  123  A    between atoms: _307  and  _309
REMARK  124  A    between atoms: _309  and  _310
REMARK  125  A    between atoms: _309  and  _312
REMARK  126  A    between atoms: _312  and  _313
REMARK  127  A    between atoms: _316  and  _318
REMARK  128  A    between atoms: _318  and  _319
REMARK  129  A    between atoms: _318  and  _321
REMARK  130  A    between atoms: _323  and  _325
REMARK  131  A    between atoms: _325  and  _326
REMARK  132  A    between atoms: _329  and  _331
REMARK  133  A    between atoms: _331  and  _332
REMARK  134  A    between atoms: _331  and  _334
REMARK  135  A    between atoms: _334  and  _335
REMARK  136  A    between atoms: _335  and  _336
REMARK  137  A    between atoms: _336  and  _337
REMARK  138  A    between atoms: _337  and  _338
REMARK  139  A    between atoms: _342  and  _344
REMARK  140  A    between atoms: _344  and  _345
REMARK  141  A    between atoms: _344  and  _347
REMARK  142  A    between atoms: _347  and  _348
REMARK  143  A    between atoms: _351  and  _353
REMARK  144  A    between atoms: _353  and  _354
REMARK  145  A    between atoms: _357  and  _359
REMARK  146  A    between atoms: _359  and  _360
REMARK  147  A    between atoms: _359  and  _362
REMARK  148  A    between atoms: _362  and  _363
REMARK  149  A    between atoms: _363  and  _486
REMARK  150  A    between atoms: _364  and  _366
REMARK  151  A    between atoms: _366  and  _367
REMARK  152  A    between atoms: _366  and  _369
REMARK  153  A    between atoms: _369  and  _370
REMARK  154  A    between atoms: _370  and  _371
REMARK  155  A    between atoms: _371  and  _372
REMARK  156  A    between atoms: _372  and  _373
REMARK  157  A    between atoms: _377  and  _379
REMARK  158  A    between atoms: _379  and  _380
REMARK  159  A    between atoms: _382  and  _384
REMARK  160  A    between atoms: _384  and  _385
REMARK  161  A    between atoms: _384  and  _387
REMARK  162  A    between atoms: _387  and  _388
REMARK  163  A    between atoms: _391  and  _393
REMARK  164  A    between atoms: _393  and  _394
REMARK  165  A    between atoms: _393  and  _396
REMARK  166  A    between atoms: _396  and  _397
REMARK  167  A    between atoms: _399  and  _401
REMARK  168  A    between atoms: _401  and  _402
REMARK  169  A    between atoms: _404  and  _406
REMARK  170  A    between atoms: _406  and  _407
REMARK  171  A    between atoms: _409  and  _411
REMARK  172  A    between atoms: _411  and  _412
REMARK  173  A    between atoms: _411  and  _414
REMARK  174  A    between atoms: _414  and  _415
REMARK  175  A    between atoms: _418  and  _420
REMARK  176  A    between atoms: _420  and  _421
REMARK  177  A    between atoms: _420  and  _423
REMARK  178  A    between atoms: _423  and  _424
REMARK  179  A    between atoms: _427  and  _429
REMARK  180  A    between atoms: _429  and  _430
REMARK  181  A    between atoms: _429  and  _432
REMARK  182  A    between atoms: _432  and  _433
REMARK  183  A    between atoms: _436  and  _438
REMARK  184  A    between atoms: _438  and  _439
REMARK  185  A    between atoms: _438  and  _441
REMARK  186  A    between atoms: _441  and  _442
REMARK  187  A    between atoms: _444  and  _446
REMARK  188  A    between atoms: _446  and  _447
REMARK  189  A    between atoms: _446  and  _449
REMARK  190  A    between atoms: _449  and  _450
REMARK  191  A    between atoms: _460  and  _462
REMARK  192  A    between atoms: _462  and  _463
REMARK  193  A    between atoms: _465  and  _467
REMARK  194  A    between atoms: _467  and  _468
REMARK  195  A    between atoms: _467  and  _470
REMARK  196  A    between atoms: _470  and  _471
REMARK  197  A    between atoms: _471  and  _472
REMARK  198  A    between atoms: _475  and  _477
REMARK  199  A    between atoms: _477  and  _478
REMARK  200  A    between atoms: _480  and  _482
REMARK  201  A    between atoms: _482  and  _483
REMARK  202  A    between atoms: _482  and  _485
REMARK  203  A    between atoms: _485  and  _486
REMARK  204  A    between atoms: _487  and  _489
REMARK  205  A    between atoms: _489  and  _490
REMARK  206  A    between atoms: _493  and  _495
REMARK  207  A    between atoms: _495  and  _496
REMARK  208  A    between atoms: _495  and  _498
REMARK  209  A    between atoms: _498  and  _499
REMARK  210  A    between atoms: _499  and  _500
REMARK  211  A    between atoms: _505  and  _507
REMARK  212  A    between atoms: _507  and  _508
REMARK  213  A    between atoms: _507  and  _510
REMARK  214  A    between atoms: _510  and  _511
REMARK  215  A    between atoms: _511  and  _512
REMARK  216  A    between atoms: _512  and  _513
REMARK  217  A    between atoms: _523  and  _524
REMARK  218  A    between atoms: _529  and  _531
REMARK  219  A    between atoms: _531  and  _532
REMARK  220  A    between atoms: _534  and  _536
REMARK  221  A    between atoms: _536  and  _537
REMARK  222  A    between atoms: _536  and  _539
REMARK  223  A    between atoms: _542  and  _544
REMARK  224  A    between atoms: _544  and  _545
REMARK  225  A    between atoms: _544  and  _547
REMARK  226  A    between atoms: _547  and  _548
REMARK  227  A    between atoms: _553  and  _554
REMARK  228  A    between atoms: _556  and  _558
REMARK  229  A    between atoms: _558  and  _559
REMARK  230  A    between atoms: _558  and  _561
REMARK  231  A    between atoms: _561  and  _562
REMARK                            x       y       z     vdW  Elec       q    Type
REMARK                         _______ _______ _______ _____ _____    ______ ____
ROOT
ATOM      1  O   HOH     1      36.704 -17.404  24.689  0.00  0.00    +0.000 OA
ENDROOT
TORSDOF 0
REMARK  Name = ../refined-set-2016/4x6m/4x6m_pocket.pdb
REMARK  231 active torsions:
REMARK  status: ('A' for Active; 'I' for Inactive)
REMARK    1  A    between atoms: _1  and  _5
REMARK    2  A    between atoms: _5  and  _6
REMARK    3  A    between atoms: _5  and  _8
REMARK    4  A    between atoms: _8  and  _9
REMARK    5  A    between atoms: _12  and  _14
REMARK    6  A    between atoms: _14  and  _15
REMARK    7  A    between atoms: _14  and  _17
REMARK    8  A    between atoms: _20  and  _22
REMARK    9  A    between atoms: _22  and  _23
REMARK   10  A    between atoms: _22  and  _25
REMARK   11  A    between atoms: _25  and  _26
REMARK   12  A    between atoms: _29  and  _31
REMARK   13  A    between atoms: _31  and  _32
REMARK   14  A    between atoms: _31  and  _34
REMARK   15  A    between atoms: _34  and  _35
REMARK   16  A    between atoms: _40  and  _42
REMARK   17  A    between atoms: _42  and  _43
REMARK   18  A    between atoms: _42  and  _45
REMARK   19  A    between atoms: _45  and  _46
REMARK   20  A    between atoms: _49  and  _51
REMARK   21  A    between atoms: _51  and  _52
REMARK   22  A    between atoms: _51  and  _54
REMARK   23  A    between atoms: _54  and  _55
REMARK   24  A    between atoms: _58  and  _60
REMARK   25  A    between atoms: _60  and  _61
REMARK   26  A    between atoms: _60  and  _63
REMARK   27  A    between atoms: _63  and  _64
REMARK   28  A    between atoms: _64  and  _65
REMARK   29  A    between atoms: _70  and  _72
REMARK   30  A    between atoms: _72  and  _73
REMARK   31  A    between atoms: _72  and  _75
REMARK   32  A    between atoms: _75  and  _76
REMARK   33  A    between atoms: _76  and  _77
REMARK   34  A    between atoms: _77  and  _78
REMARK   35  A    between atoms: _87  and  _89
REMARK   36  A    between atoms: _89  and  _90
REMARK   37  A    between atoms: _89  and  _92
REMARK   38  A    between atoms: _92  and  _93
REMARK   39  A    between atoms: _98  and  _100
REMARK   40  A    between atoms: _100  and  _101
REMARK   41  A    between atoms: _100  and  _103
REMARK   42  A    between atoms: _103  and  _104
REMARK   43  A    between atoms: _107  and  _109
REMARK   44  A    between atoms: _109  and  _110
REMARK   45  A    between atoms: _109  and  _112
REMARK   46  A    between atoms: _112  and  _113
REMARK   47  A    between atoms: _113  and  _148
REMARK   48  A    between atoms: _114  and  _116
REMARK   49  A    between atoms: _116  and  _117
REMARK   50  A    between atoms: _119  and  _121
REMARK   51  A    between atoms: _121  and  _122
REMARK   52  A    between atoms: _125  and  _127
REMARK   53  A    between atoms: _127  and  _128
REMARK   54  A    between atoms: _131  and  _133
REMARK   55  A    between atoms: _133  and  _134
REMARK   56  A    between atoms: _133  and  _136
REMARK   57  A    between atoms: _136  and  _137
REMARK   58  A    between atoms: _142  and  _144
REMARK   59  A    between atoms: _144  and  _145
REMARK   60  A    between atoms: _144  and  _147
REMARK   61  A    between atoms: _147  and  _148
REMARK   62  A    between atoms: _149  and  _151
REMARK   63  A    between atoms: _151  and  _152
REMARK   64  A    between atoms: _151  and  _154
REMARK   65  A    between atoms: _154  and  _155
REMARK   66  A    between atoms: _161  and  _163
REMARK   67  A    between atoms: _163  and  _164
REMARK   68  A    between atoms: _163  and  _166
REMARK   69  A    between atoms: _166  and  _167
REMARK   70  A    between atoms: _172  and  _173
REMARK   71  A    between atoms: _175  and  _177
REMARK   72  A    between atoms: _177  and  _178
REMARK   73  A    between atoms: _177  and  _180
REMARK   74  A    between atoms: _183  and  _185
REMARK   75  A    between atoms: _185  and  _186
REMARK   76  A    between atoms: _189  and  _191
REMARK   77  A    between atoms: _191  and  _192
REMARK   78  A    between atoms: _191  and  _194
REMARK   79  A    between atoms: _194  and  _195
REMARK   80  A    between atoms: _198  and  _200
REMARK   81  A    between atoms: _200  and  _201
REMARK   82  A    between atoms: _200  and  _203
REMARK   83  A    between atoms: _206  and  _208
REMARK   84  A    between atoms: _208  and  _209
REMARK   85  A    between atoms: _208  and  _211
REMARK   86  A    between atoms: _211  and  _212
REMARK   87  A    between atoms: _222  and  _224
REMARK   88  A    between atoms: _224  and  _225
REMARK   89  A    between atoms: _227  and  _229
REMARK   90  A    between atoms: _229  and  _230
REMARK   91  A    between atoms: _229  and  _232
REMARK   92  A    between atoms: _232  and  _233
REMARK   93  A    between atoms: _238  and  _239
REMARK   94  A    between atoms: _241  and  _243
REMARK   95  A    between atoms: _243  and  _244
REMARK   96  A    between atoms: _243  and  _246
REMARK   97  A    between atoms: _246  and  _247
REMARK   98  A    between atoms: _250  and  _252
REMARK   99  A    between atoms: _252  and  _253
REMARK  100  A    between atoms: _252  and  _255
REMARK  101  A    between atoms: _255  and  _256
REMARK  102  A    between atoms: _259  and  _261
REMARK  103  A    between atoms: _261  and  _262
REMARK  104  A    between atoms: _261  and  _264
REMARK  105  A    between atoms: _264  and  _265
REMARK  106  A    between atoms: _265  and  _266
REMARK  107  A    between atoms: _266  and  _267
REMARK  108  A    between atoms: _267  and  _268
REMARK  109  A    between atoms: _272  and  _274
REMARK  110  A    between atoms: _274  and  _275
REMARK  111  A    between atoms: _274  and  _277
REMARK  112  A    between atoms: _277  and  _278
REMARK  113  A    between atoms: _281  and  _283
REMARK  114  A    between atoms: _283  and  _284
REMARK  115  A    between atoms: _283  and  _286
REMARK  116  A    between atoms: _286  and  _287
REMARK  117  A    between atoms: _287  and  _288
REMARK  118  A    between atoms: _293  and  _295
REMARK  119  A    between atoms: _295  and  _296
REMARK  120  A    between atoms: _295  and  _298
REMARK  121  A    between atoms: _298  and  _299
REMARK  122  A    between atoms: _304  and  _305
REMARK  123  A    between atoms: _307  and  _309
REMARK  124  A    between atoms: _309  and  _310
REMARK  125  A    between atoms: _309  and  _312
REMARK  126  A    between atoms: _312  and  _313
REMARK  127  A    between atoms: _316  and  _318
REMARK  128  A    between atoms: _318  and  _319
REMARK  129  A    between atoms: _318  and  _321
REMARK  130  A    between atoms: _323  and  _325
REMARK  131  A    between atoms: _325  and  _326
REMARK  132  A    between atoms: _329  and  _331
REMARK  133  A    between atoms: _331  and  _332
REMARK  134  A    between atoms: _331  and  _334
REMARK  135  A    between atoms: _334  and  _335
REMARK  136  A    between atoms: _335  and  _336
REMARK  137  A    between atoms: _336  and  _337
REMARK  138  A    between atoms: _337  and  _338
REMARK  139  A    between atoms: _342  and  _344
REMARK  140  A    between atoms: _344  and  _345
REMARK  141  A    between atoms: _344  and  _347
REMARK  142  A    between atoms: _347  and  _348
REMARK  143  A    between atoms: _351  and  _353
REMARK  144  A    between atoms: _353  and  _354
REMARK  145  A    between atoms: _357  and  _359
REMARK  146  A    between atoms: _359  and  _360
REMARK  147  A    between atoms: _359  and  _362
REMARK  148  A    between atoms: _362  and  _363
REMARK  149  A    between atoms: _363  and  _486
REMARK  150  A    between atoms: _364  and  _366
REMARK  151  A    between atoms: _366  and  _367
REMARK  152  A    between atoms: _366  and  _369
REMARK  153  A    between atoms: _369  and  _370
REMARK  154  A    between atoms: _370  and  _371
REMARK  155  A    between atoms: _371  and  _372
REMARK  156  A    between atoms: _372  and  _373
REMARK  157  A    between atoms: _377  and  _379
REMARK  158  A    between atoms: _379  and  _380
REMARK  159  A    between atoms: _382  and  _384
REMARK  160  A    between atoms: _384  and  _385
REMARK  161  A    between atoms: _384  and  _387
REMARK  162  A    between atoms: _387  and  _388
REMARK  163  A    between atoms: _391  and  _393
REMARK  164  A    between atoms: _393  and  _394
REMARK  165  A    between atoms: _393  and  _396
REMARK  166  A    between atoms: _396  and  _397
REMARK  167  A    between atoms: _399  and  _401
REMARK  168  A    between atoms: _401  and  _402
REMARK  169  A    between atoms: _404  and  _406
REMARK  170  A    between atoms: _406  and  _407
REMARK  171  A    between atoms: _409  and  _411
REMARK  172  A    between atoms: _411  and  _412
REMARK  173  A    between atoms: _411  and  _414
REMARK  174  A    between atoms: _414  and  _415
REMARK  175  A    between atoms: _418  and  _420
REMARK  176  A    between atoms: _420  and  _421
REMARK  177  A    between atoms: _420  and  _423
REMARK  178  A    between atoms: _423  and  _424
REMARK  179  A    between atoms: _427  and  _429
REMARK  180  A    between atoms: _429  and  _430
REMARK  181  A    between atoms: _429  and  _432
REMARK  182  A    between atoms: _432  and  _433
REMARK  183  A    between atoms: _436  and  _438
REMARK  184  A    between atoms: _438  and  _439
REMARK  185  A    between atoms: _438  and  _441
REMARK  186  A    between atoms: _441  and  _442
REMARK  187  A    between atoms: _444  and  _446
REMARK  188  A    between atoms: _446  and  _447
REMARK  189  A    between atoms: _446  and  _449
REMARK  190  A    between atoms: _449  and  _450
REMARK  191  A    between atoms: _460  and  _462
REMARK  192  A    between atoms: _462  and  _463
REMARK  193  A    between atoms: _465  and  _467
REMARK  194  A    between atoms: _467  and  _468
REMARK  195  A    between atoms: _467  and  _470
REMARK  196  A    between atoms: _470  and  _471
REMARK  197  A    between atoms: _471  and  _472
REMARK  198  A    between atoms: _475  and  _477
REMARK  199  A    between atoms: _477  and  _478
REMARK  200  A    between atoms: _480  and  _482
REMARK  201  A    between atoms: _482  and  _483
REMARK  202  A    between atoms: _482  and  _485
REMARK  203  A    between atoms: _485  and  _486
REMARK  204  A    between atoms: _487  and  _489
REMARK  205  A    between atoms: _489  and  _490
REMARK  206  A    between atoms: _493  and  _495
REMARK  207  A    between atoms: _495  and  _496
REMARK  208  A    between atoms: _495  and  _498
REMARK  209  A    between atoms: _498  and  _499
REMARK  210  A    between atoms: _499  and  _500
REMARK  211  A    between atoms: _505  and  _507
REMARK  212  A    between atoms: _507  and  _508
REMARK  213  A    between atoms: _507  and  _510
REMARK  214  A    between atoms: _510  and  _511
REMARK  215  A    between atoms: _511  and  _512
REMARK  216  A    between atoms: _512  and  _513
REMARK  217  A    between atoms: _523  and  _524
REMARK  218  A    between atoms: _529  and  _531
REMARK  219  A    between atoms: _531  and  _532
REMARK  220  A    between atoms: _534  and  _536
REMARK  221  A    between atoms: _536  and  _537
REMARK  222  A    between atoms: _536  and  _539
REMARK  223  A    between atoms: _542  and  _544
REMARK  224  A    between atoms: _544  and  _545
REMARK  225  A    between atoms: _544  and  _547
REMARK  226  A    between atoms: _547  and  _548
REMARK  227  A    between atoms: _553  and  _554
REMARK  228  A    between atoms: _556  and  _558
REMARK  229  A    between atoms: _558  and  _559
REMARK  230  A    between atoms: _558  and  _561
REMARK  231  A    between atoms: _561  and  _562
REMARK                            x       y       z     vdW  Elec       q    Type
REMARK                         _______ _______ _______ _____ _____    ______ ____
ROOT
ATOM      1  O   HOH     1      51.400 -18.514  39.035  0.00  0.00    +0.000 OA
ENDROOT
TORSDOF 0
REMARK  Name = ../refined-set-2016/4x6m/4x6m_pocket.pdb
REMARK  231 active torsions:
REMARK  status: ('A' for Active; 'I' for Inactive)
REMARK    1  A    between atoms: _1  and  _5
REMARK    2  A    between atoms: _5  and  _6
REMARK    3  A    between atoms: _5  and  _8
REMARK    4  A    between atoms: _8  and  _9
REMARK    5  A    between atoms: _12  and  _14
REMARK    6  A    between atoms: _14  and  _15
REMARK    7  A    between atoms: _14  and  _17
REMARK    8  A    between atoms: _20  and  _22
REMARK    9  A    between atoms: _22  and  _23
REMARK   10  A    between atoms: _22  and  _25
REMARK   11  A    between atoms: _25  and  _26
REMARK   12  A    between atoms: _29  and  _31
REMARK   13  A    between atoms: _31  and  _32
REMARK   14  A    between atoms: _31  and  _34
REMARK   15  A    between atoms: _34  and  _35
REMARK   16  A    between atoms: _40  and  _42
REMARK   17  A    between atoms: _42  and  _43
REMARK   18  A    between atoms: _42  and  _45
REMARK   19  A    between atoms: _45  and  _46
REMARK   20  A    between atoms: _49  and  _51
REMARK   21  A    between atoms: _51  and  _52
REMARK   22  A    between atoms: _51  and  _54
REMARK   23  A    between atoms: _54  and  _55
REMARK   24  A    between atoms: _58  and  _60
REMARK   25  A    between atoms: _60  and  _61
REMARK   26  A    between atoms: _60  and  _63
REMARK   27  A    between atoms: _63  and  _64
REMARK   28  A    between atoms: _64  and  _65
REMARK   29  A    between atoms: _70  and  _72
REMARK   30  A    between atoms: _72  and  _73
REMARK   31  A    between atoms: _72  and  _75
REMARK   32  A    between atoms: _75  and  _76
REMARK   33  A    between atoms: _76  and  _77
REMARK   34  A    between atoms: _77  and  _78
REMARK   35  A    between atoms: _87  and  _89
REMARK   36  A    between atoms: _89  and  _90
REMARK   37  A    between atoms: _89  and  _92
REMARK   38  A    between atoms: _92  and  _93
REMARK   39  A    between atoms: _98  and  _100
REMARK   40  A    between atoms: _100  and  _101
REMARK   41  A    between atoms: _100  and  _103
REMARK   42  A    between atoms: _103  and  _104
REMARK   43  A    between atoms: _107  and  _109
REMARK   44  A    between atoms: _109  and  _110
REMARK   45  A    between atoms: _109  and  _112
REMARK   46  A    between atoms: _112  and  _113
REMARK   47  A    between atoms: _113  and  _148
REMARK   48  A    between atoms: _114  and  _116
REMARK   49  A    between atoms: _116  and  _117
REMARK   50  A    between atoms: _119  and  _121
REMARK   51  A    between atoms: _121  and  _122
REMARK   52  A    between atoms: _125  and  _127
REMARK   53  A    between atoms: _127  and  _128
REMARK   54  A    between atoms: _131  and  _133
REMARK   55  A    between atoms: _133  and  _134
REMARK   56  A    between atoms: _133  and  _136
REMARK   57  A    between atoms: _136  and  _137
REMARK   58  A    between atoms: _142  and  _144
REMARK   59  A    between atoms: _144  and  _145
REMARK   60  A    between atoms: _144  and  _147
REMARK   61  A    between atoms: _147  and  _148
REMARK   62  A    between atoms: _149  and  _151
REMARK   63  A    between atoms: _151  and  _152
REMARK   64  A    between atoms: _151  and  _154
REMARK   65  A    between atoms: _154  and  _155
REMARK   66  A    between atoms: _161  and  _163
REMARK   67  A    between atoms: _163  and  _164
REMARK   68  A    between atoms: _163  and  _166
REMARK   69  A    between atoms: _166  and  _167
REMARK   70  A    between atoms: _172  and  _173
REMARK   71  A    between atoms: _175  and  _177
REMARK   72  A    between atoms: _177  and  _178
REMARK   73  A    between atoms: _177  and  _180
REMARK   74  A    between atoms: _183  and  _185
REMARK   75  A    between atoms: _185  and  _186
REMARK   76  A    between atoms: _189  and  _191
REMARK   77  A    between atoms: _191  and  _192
REMARK   78  A    between atoms: _191  and  _194
REMARK   79  A    between atoms: _194  and  _195
REMARK   80  A    between atoms: _198  and  _200
REMARK   81  A    between atoms: _200  and  _201
REMARK   82  A    between atoms: _200  and  _203
REMARK   83  A    between atoms: _206  and  _208
REMARK   84  A    between atoms: _208  and  _209
REMARK   85  A    between atoms: _208  and  _211
REMARK   86  A    between atoms: _211  and  _212
REMARK   87  A    between atoms: _222  and  _224
REMARK   88  A    between atoms: _224  and  _225
REMARK   89  A    between atoms: _227  and  _229
REMARK   90  A    between atoms: _229  and  _230
REMARK   91  A    between atoms: _229  and  _232
REMARK   92  A    between atoms: _232  and  _233
REMARK   93  A    between atoms: _238  and  _239
REMARK   94  A    between atoms: _241  and  _243
REMARK   95  A    between atoms: _243  and  _244
REMARK   96  A    between atoms: _243  and  _246
REMARK   97  A    between atoms: _246  and  _247
REMARK   98  A    between atoms: _250  and  _252
REMARK   99  A    between atoms: _252  and  _253
REMARK  100  A    between atoms: _252  and  _255
REMARK  101  A    between atoms: _255  and  _256
REMARK  102  A    between atoms: _259  and  _261
REMARK  103  A    between atoms: _261  and  _262
REMARK  104  A    between atoms: _261  and  _264
REMARK  105  A    between atoms: _264  and  _265
REMARK  106  A    between atoms: _265  and  _266
REMARK  107  A    between atoms: _266  and  _267
REMARK  108  A    between atoms: _267  and  _268
REMARK  109  A    between atoms: _272  and  _274
REMARK  110  A    between atoms: _274  and  _275
REMARK  111  A    between atoms: _274  and  _277
REMARK  112  A    between atoms: _277  and  _278
REMARK  113  A    between atoms: _281  and  _283
REMARK  114  A    between atoms: _283  and  _284
REMARK  115  A    between atoms: _283  and  _286
REMARK  116  A    between atoms: _286  and  _287
REMARK  117  A    between atoms: _287  and  _288
REMARK  118  A    between atoms: _293  and  _295
REMARK  119  A    between atoms: _295  and  _296
REMARK  120  A    between atoms: _295  and  _298
REMARK  121  A    between atoms: _298  and  _299
REMARK  122  A    between atoms: _304  and  _305
REMARK  123  A    between atoms: _307  and  _309
REMARK  124  A    between atoms: _309  and  _310
REMARK  125  A    between atoms: _309  and  _312
REMARK  126  A    between atoms: _312  and  _313
REMARK  127  A    between atoms: _316  and  _318
REMARK  128  A    between atoms: _318  and  _319
REMARK  129  A    between atoms: _318  and  _321
REMARK  130  A    between atoms: _323  and  _325
REMARK  131  A    between atoms: _325  and  _326
REMARK  132  A    between atoms: _329  and  _331
REMARK  133  A    between atoms: _331  and  _332
REMARK  134  A    between atoms: _331  and  _334
REMARK  135  A    between atoms: _334  and  _335
REMARK  136  A    between atoms: _335  and  _336
REMARK  137  A    between atoms: _336  and  _337
REMARK  138  A    between atoms: _337  and  _338
REMARK  139  A    between atoms: _342  and  _344
REMARK  140  A    between atoms: _344  and  _345
REMARK  141  A    between atoms: _344  and  _347
REMARK  142  A    between atoms: _347  and  _348
REMARK  143  A    between atoms: _351  and  _353
REMARK  144  A    between atoms: _353  and  _354
REMARK  145  A    between atoms: _357  and  _359
REMARK  146  A    between atoms: _359  and  _360
REMARK  147  A    between atoms: _359  and  _362
REMARK  148  A    between atoms: _362  and  _363
REMARK  149  A    between atoms: _363  and  _486
REMARK  150  A    between atoms: _364  and  _366
REMARK  151  A    between atoms: _366  and  _367
REMARK  152  A    between atoms: _366  and  _369
REMARK  153  A    between atoms: _369  and  _370
REMARK  154  A    between atoms: _370  and  _371
REMARK  155  A    between atoms: _371  and  _372
REMARK  156  A    between atoms: _372  and  _373
REMARK  157  A    between atoms: _377  and  _379
REMARK  158  A    between atoms: _379  and  _380
REMARK  159  A    between atoms: _382  and  _384
REMARK  160  A    between atoms: _384  and  _385
REMARK  161  A    between atoms: _384  and  _387
REMARK  162  A    between atoms: _387  and  _388
REMARK  163  A    between atoms: _391  and  _393
REMARK  164  A    between atoms: _393  and  _394
REMARK  165  A    between atoms: _393  and  _396
REMARK  166  A    between atoms: _396  and  _397
REMARK  167  A    between atoms: _399  and  _401
REMARK  168  A    between atoms: _401  and  _402
REMARK  169  A    between atoms: _404  and  _406
REMARK  170  A    between atoms: _406  and  _407
REMARK  171  A    between atoms: _409  and  _411
REMARK  172  A    between atoms: _411  and  _412
REMARK  173  A    between atoms: _411  and  _414
REMARK  174  A    between atoms: _414  and  _415
REMARK  175  A    between atoms: _418  and  _420
REMARK  176  A    between atoms: _420  and  _421
REMARK  177  A    between atoms: _420  and  _423
REMARK  178  A    between atoms: _423  and  _424
REMARK  179  A    between atoms: _427  and  _429
REMARK  180  A    between atoms: _429  and  _430
REMARK  181  A    between atoms: _429  and  _432
REMARK  182  A    between atoms: _432  and  _433
REMARK  183  A    between atoms: _436  and  _438
REMARK  184  A    between atoms: _438  and  _439
REMARK  185  A    between atoms: _438  and  _441
REMARK  186  A    between atoms: _441  and  _442
REMARK  187  A    between atoms: _444  and  _446
REMARK  188  A    between atoms: _446  and  _447
REMARK  189  A    between atoms: _446  and  _449
REMARK  190  A    between atoms: _449  and  _450
REMARK  191  A    between atoms: _460  and  _462
REMARK  192  A    between atoms: _462  and  _463
REMARK  193  A    between atoms: _465  and  _467
REMARK  194  A    between atoms: _467  and  _468
REMARK  195  A    between atoms: _467  and  _470
REMARK  196  A    between atoms: _470  and  _471
REMARK  197  A    between atoms: _471  and  _472
REMARK  198  A    between atoms: _475  and  _477
REMARK  199  A    between atoms: _477  and  _478
REMARK  200  A    between atoms: _480  and  _482
REMARK  201  A    between atoms: _482  and  _483
REMARK  202  A    between atoms: _482  and  _485
REMARK  203  A    between atoms: _485  and  _486
REMARK  204  A    between atoms: _487  and  _489
REMARK  205  A    between atoms: _489  and  _490
REMARK  206  A    between atoms: _493  and  _495
REMARK  207  A    between atoms: _495  and  _496
REMARK  208  A    between atoms: _495  and  _498
REMARK  209  A    between atoms: _498  and  _499
REMARK  210  A    between atoms: _499  and  _500
REMARK  211  A    between atoms: _505  and  _507
REMARK  212  A    between atoms: _507  and  _508
REMARK  213  A    between atoms: _507  and  _510
REMARK  214  A    between atoms: _510  and  _511
REMARK  215  A    between atoms: _511  and  _512
REMARK  216  A    between atoms: _512  and  _513
REMARK  217  A    between atoms: _523  and  _524
REMARK  218  A    between atoms: _529  and  _531
REMARK  219  A    between atoms: _531  and  _532
REMARK  220  A    between atoms: _534  and  _536
REMARK  221  A    between atoms: _536  and  _537
REMARK  222  A    between atoms: _536  and  _539
REMARK  223  A    between atoms: _542  and  _544
REMARK  224  A    between atoms: _544  and  _545
REMARK  225  A    between atoms: _544  and  _547
REMARK  226  A    between atoms: _547  and  _548
REMARK  227  A    between atoms: _553  and  _554
REMARK  228  A    between atoms: _556  and  _558
REMARK  229  A    between atoms: _558  and  _559
REMARK  230  A    between atoms: _558  and  _561
REMARK  231  A    between atoms: _561  and  _562
REMARK                            x       y       z     vdW  Elec       q    Type
REMARK                         _______ _______ _______ _____ _____    ______ ____
ROOT
ATOM      1  O   HOH     1      36.597  -9.216  24.064  0.00  0.00    +0.000 OA
ENDROOT
TORSDOF 0
REMARK  Name = ../refined-set-2016/4x6m/4x6m_pocket.pdb
REMARK  231 active torsions:
REMARK  status: ('A' for Active; 'I' for Inactive)
REMARK    1  A    between atoms: _1  and  _5
REMARK    2  A    between atoms: _5  and  _6
REMARK    3  A    between atoms: _5  and  _8
REMARK    4  A    between atoms: _8  and  _9
REMARK    5  A    between atoms: _12  and  _14
REMARK    6  A    between atoms: _14  and  _15
REMARK    7  A    between atoms: _14  and  _17
REMARK    8  A    between atoms: _20  and  _22
REMARK    9  A    between atoms: _22  and  _23
REMARK   10  A    between atoms: _22  and  _25
REMARK   11  A    between atoms: _25  and  _26
REMARK   12  A    between atoms: _29  and  _31
REMARK   13  A    between atoms: _31  and  _32
REMARK   14  A    between atoms: _31  and  _34
REMARK   15  A    between atoms: _34  and  _35
REMARK   16  A    between atoms: _40  and  _42
REMARK   17  A    between atoms: _42  and  _43
REMARK   18  A    between atoms: _42  and  _45
REMARK   19  A    between atoms: _45  and  _46
REMARK   20  A    between atoms: _49  and  _51
REMARK   21  A    between atoms: _51  and  _52
REMARK   22  A    between atoms: _51  and  _54
REMARK   23  A    between atoms: _54  and  _55
REMARK   24  A    between atoms: _58  and  _60
REMARK   25  A    between atoms: _60  and  _61
REMARK   26  A    between atoms: _60  and  _63
REMARK   27  A    between atoms: _63  and  _64
REMARK   28  A    between atoms: _64  and  _65
REMARK   29  A    between atoms: _70  and  _72
REMARK   30  A    between atoms: _72  and  _73
REMARK   31  A    between atoms: _72  and  _75
REMARK   32  A    between atoms: _75  and  _76
REMARK   33  A    between atoms: _76  and  _77
REMARK   34  A    between atoms: _77  and  _78
REMARK   35  A    between atoms: _87  and  _89
REMARK   36  A    between atoms: _89  and  _90
REMARK   37  A    between atoms: _89  and  _92
REMARK   38  A    between atoms: _92  and  _93
REMARK   39  A    between atoms: _98  and  _100
REMARK   40  A    between atoms: _100  and  _101
REMARK   41  A    between atoms: _100  and  _103
REMARK   42  A    between atoms: _103  and  _104
REMARK   43  A    between atoms: _107  and  _109
REMARK   44  A    between atoms: _109  and  _110
REMARK   45  A    between atoms: _109  and  _112
REMARK   46  A    between atoms: _112  and  _113
REMARK   47  A    between atoms: _113  and  _148
REMARK   48  A    between atoms: _114  and  _116
REMARK   49  A    between atoms: _116  and  _117
REMARK   50  A    between atoms: _119  and  _121
REMARK   51  A    between atoms: _121  and  _122
REMARK   52  A    between atoms: _125  and  _127
REMARK   53  A    between atoms: _127  and  _128
REMARK   54  A    between atoms: _131  and  _133
REMARK   55  A    between atoms: _133  and  _134
REMARK   56  A    between atoms: _133  and  _136
REMARK   57  A    between atoms: _136  and  _137
REMARK   58  A    between atoms: _142  and  _144
REMARK   59  A    between atoms: _144  and  _145
REMARK   60  A    between atoms: _144  and  _147
REMARK   61  A    between atoms: _147  and  _148
REMARK   62  A    between atoms: _149  and  _151
REMARK   63  A    between atoms: _151  and  _152
REMARK   64  A    between atoms: _151  and  _154
REMARK   65  A    between atoms: _154  and  _155
REMARK   66  A    between atoms: _161  and  _163
REMARK   67  A    between atoms: _163  and  _164
REMARK   68  A    between atoms: _163  and  _166
REMARK   69  A    between atoms: _166  and  _167
REMARK   70  A    between atoms: _172  and  _173
REMARK   71  A    between atoms: _175  and  _177
REMARK   72  A    between atoms: _177  and  _178
REMARK   73  A    between atoms: _177  and  _180
REMARK   74  A    between atoms: _183  and  _185
REMARK   75  A    between atoms: _185  and  _186
REMARK   76  A    between atoms: _189  and  _191
REMARK   77  A    between atoms: _191  and  _192
REMARK   78  A    between atoms: _191  and  _194
REMARK   79  A    between atoms: _194  and  _195
REMARK   80  A    between atoms: _198  and  _200
REMARK   81  A    between atoms: _200  and  _201
REMARK   82  A    between atoms: _200  and  _203
REMARK   83  A    between atoms: _206  and  _208
REMARK   84  A    between atoms: _208  and  _209
REMARK   85  A    between atoms: _208  and  _211
REMARK   86  A    between atoms: _211  and  _212
REMARK   87  A    between atoms: _222  and  _224
REMARK   88  A    between atoms: _224  and  _225
REMARK   89  A    between atoms: _227  and  _229
REMARK   90  A    between atoms: _229  and  _230
REMARK   91  A    between atoms: _229  and  _232
REMARK   92  A    between atoms: _232  and  _233
REMARK   93  A    between atoms: _238  and  _239
REMARK   94  A    between atoms: _241  and  _243
REMARK   95  A    between atoms: _243  and  _244
REMARK   96  A    between atoms: _243  and  _246
REMARK   97  A    between atoms: _246  and  _247
REMARK   98  A    between atoms: _250  and  _252
REMARK   99  A    between atoms: _252  and  _253
REMARK  100  A    between atoms: _252  and  _255
REMARK  101  A    between atoms: _255  and  _256
REMARK  102  A    between atoms: _259  and  _261
REMARK  103  A    between atoms: _261  and  _262
REMARK  104  A    between atoms: _261  and  _264
REMARK  105  A    between atoms: _264  and  _265
REMARK  106  A    between atoms: _265  and  _266
REMARK  107  A    between atoms: _266  and  _267
REMARK  108  A    between atoms: _267  and  _268
REMARK  109  A    between atoms: _272  and  _274
REMARK  110  A    between atoms: _274  and  _275
REMARK  111  A    between atoms: _274  and  _277
REMARK  112  A    between atoms: _277  and  _278
REMARK  113  A    between atoms: _281  and  _283
REMARK  114  A    between atoms: _283  and  _284
REMARK  115  A    between atoms: _283  and  _286
REMARK  116  A    between atoms: _286  and  _287
REMARK  117  A    between atoms: _287  and  _288
REMARK  118  A    between atoms: _293  and  _295
REMARK  119  A    between atoms: _295  and  _296
REMARK  120  A    between atoms: _295  and  _298
REMARK  121  A    between atoms: _298  and  _299
REMARK  122  A    between atoms: _304  and  _305
REMARK  123  A    between atoms: _307  and  _309
REMARK  124  A    between atoms: _309  and  _310
REMARK  125  A    between atoms: _309  and  _312
REMARK  126  A    between atoms: _312  and  _313
REMARK  127  A    between atoms: _316  and  _318
REMARK  128  A    between atoms: _318  and  _319
REMARK  129  A    between atoms: _318  and  _321
REMARK  130  A    between atoms: _323  and  _325
REMARK  131  A    between atoms: _325  and  _326
REMARK  132  A    between atoms: _329  and  _331
REMARK  133  A    between atoms: _331  and  _332
REMARK  134  A    between atoms: _331  and  _334
REMARK  135  A    between atoms: _334  and  _335
REMARK  136  A    between atoms: _335  and  _336
REMARK  137  A    between atoms: _336  and  _337
REMARK  138  A    between atoms: _337  and  _338
REMARK  139  A    between atoms: _342  and  _344
REMARK  140  A    between atoms: _344  and  _345
REMARK  141  A    between atoms: _344  and  _347
REMARK  142  A    between atoms: _347  and  _348
REMARK  143  A    between atoms: _351  and  _353
REMARK  144  A    between atoms: _353  and  _354
REMARK  145  A    between atoms: _357  and  _359
REMARK  146  A    between atoms: _359  and  _360
REMARK  147  A    between atoms: _359  and  _362
REMARK  148  A    between atoms: _362  and  _363
REMARK  149  A    between atoms: _363  and  _486
REMARK  150  A    between atoms: _364  and  _366
REMARK  151  A    between atoms: _366  and  _367
REMARK  152  A    between atoms: _366  and  _369
REMARK  153  A    between atoms: _369  and  _370
REMARK  154  A    between atoms: _370  and  _371
REMARK  155  A    between atoms: _371  and  _372
REMARK  156  A    between atoms: _372  and  _373
REMARK  157  A    between atoms: _377  and  _379
REMARK  158  A    between atoms: _379  and  _380
REMARK  159  A    between atoms: _382  and  _384
REMARK  160  A    between atoms: _384  and  _385
REMARK  161  A    between atoms: _384  and  _387
REMARK  162  A    between atoms: _387  and  _388
REMARK  163  A    between atoms: _391  and  _393
REMARK  164  A    between atoms: _393  and  _394
REMARK  165  A    between atoms: _393  and  _396
REMARK  166  A    between atoms: _396  and  _397
REMARK  167  A    between atoms: _399  and  _401
REMARK  168  A    between atoms: _401  and  _402
REMARK  169  A    between atoms: _404  and  _406
REMARK  170  A    between atoms: _406  and  _407
REMARK  171  A    between atoms: _409  and  _411
REMARK  172  A    between atoms: _411  and  _412
REMARK  173  A    between atoms: _411  and  _414
REMARK  174  A    between atoms: _414  and  _415
REMARK  175  A    between atoms: _418  and  _420
REMARK  176  A    between atoms: _420  and  _421
REMARK  177  A    between atoms: _420  and  _423
REMARK  178  A    between atoms: _423  and  _424
REMARK  179  A    between atoms: _427  and  _429
REMARK  180  A    between atoms: _429  and  _430
REMARK  181  A    between atoms: _429  and  _432
REMARK  182  A    between atoms: _432  and  _433
REMARK  183  A    between atoms: _436  and  _438
REMARK  184  A    between atoms: _438  and  _439
REMARK  185  A    between atoms: _438  and  _441
REMARK  186  A    between atoms: _441  and  _442
REMARK  187  A    between atoms: _444  and  _446
REMARK  188  A    between atoms: _446  and  _447
REMARK  189  A    between atoms: _446  and  _449
REMARK  190  A    between atoms: _449  and  _450
REMARK  191  A    between atoms: _460  and  _462
REMARK  192  A    between atoms: _462  and  _463
REMARK  193  A    between atoms: _465  and  _467
REMARK  194  A    between atoms: _467  and  _468
REMARK  195  A    between atoms: _467  and  _470
REMARK  196  A    between atoms: _470  and  _471
REMARK  197  A    between atoms: _471  and  _472
REMARK  198  A    between atoms: _475  and  _477
REMARK  199  A    between atoms: _477  and  _478
REMARK  200  A    between atoms: _480  and  _482
REMARK  201  A    between atoms: _482  and  _483
REMARK  202  A    between atoms: _482  and  _485
REMARK  203  A    between atoms: _485  and  _486
REMARK  204  A    between atoms: _487  and  _489
REMARK  205  A    between atoms: _489  and  _490
REMARK  206  A    between atoms: _493  and  _495
REMARK  207  A    between atoms: _495  and  _496
REMARK  208  A    between atoms: _495  and  _498
REMARK  209  A    between atoms: _498  and  _499
REMARK  210  A    between atoms: _499  and  _500
REMARK  211  A    between atoms: _505  and  _507
REMARK  212  A    between atoms: _507  and  _508
REMARK  213  A    between atoms: _507  and  _510
REMARK  214  A    between atoms: _510  and  _511
REMARK  215  A    between atoms: _511  and  _512
REMARK  216  A    between atoms: _512  and  _513
REMARK  217  A    between atoms: _523  and  _524
REMARK  218  A    between atoms: _529  and  _531
REMARK  219  A    between atoms: _531  and  _532
REMARK  220  A    between atoms: _534  and  _536
REMARK  221  A    between atoms: _536  and  _537
REMARK  222  A    between atoms: _536  and  _539
REMARK  223  A    between atoms: _542  and  _544
REMARK  224  A    between atoms: _544  and  _545
REMARK  225  A    between atoms: _544  and  _547
REMARK  226  A    between atoms: _547  and  _548
REMARK  227  A    between atoms: _553  and  _554
REMARK  228  A    between atoms: _556  and  _558
REMARK  229  A    between atoms: _558  and  _559
REMARK  230  A    between atoms: _558  and  _561
REMARK  231  A    between atoms: _561  and  _562
REMARK                            x       y       z     vdW  Elec       q    Type
REMARK                         _______ _______ _______ _____ _____    ______ ____
ROOT
ATOM      1  O   HOH     1      50.976 -22.063  34.886  0.00  0.00    +0.000 OA
ENDROOT
TORSDOF 0
REMARK  Name = ../refined-set-2016/4x6m/4x6m_pocket.pdb
REMARK  231 active torsions:
REMARK  status: ('A' for Active; 'I' for Inactive)
REMARK    1  A    between atoms: _1  and  _5
REMARK    2  A    between atoms: _5  and  _6
REMARK    3  A    between atoms: _5  and  _8
REMARK    4  A    between atoms: _8  and  _9
REMARK    5  A    between atoms: _12  and  _14
REMARK    6  A    between atoms: _14  and  _15
REMARK    7  A    between atoms: _14  and  _17
REMARK    8  A    between atoms: _20  and  _22
REMARK    9  A    between atoms: _22  and  _23
REMARK   10  A    between atoms: _22  and  _25
REMARK   11  A    between atoms: _25  and  _26
REMARK   12  A    between atoms: _29  and  _31
REMARK   13  A    between atoms: _31  and  _32
REMARK   14  A    between atoms: _31  and  _34
REMARK   15  A    between atoms: _34  and  _35
REMARK   16  A    between atoms: _40  and  _42
REMARK   17  A    between atoms: _42  and  _43
REMARK   18  A    between atoms: _42  and  _45
REMARK   19  A    between atoms: _45  and  _46
REMARK   20  A    between atoms: _49  and  _51
REMARK   21  A    between atoms: _51  and  _52
REMARK   22  A    between atoms: _51  and  _54
REMARK   23  A    between atoms: _54  and  _55
REMARK   24  A    between atoms: _58  and  _60
REMARK   25  A    between atoms: _60  and  _61
REMARK   26  A    between atoms: _60  and  _63
REMARK   27  A    between atoms: _63  and  _64
REMARK   28  A    between atoms: _64  and  _65
REMARK   29  A    between atoms: _70  and  _72
REMARK   30  A    between atoms: _72  and  _73
REMARK   31  A    between atoms: _72  and  _75
REMARK   32  A    between atoms: _75  and  _76
REMARK   33  A    between atoms: _76  and  _77
REMARK   34  A    between atoms: _77  and  _78
REMARK   35  A    between atoms: _87  and  _89
REMARK   36  A    between atoms: _89  and  _90
REMARK   37  A    between atoms: _89  and  _92
REMARK   38  A    between atoms: _92  and  _93
REMARK   39  A    between atoms: _98  and  _100
REMARK   40  A    between atoms: _100  and  _101
REMARK   41  A    between atoms: _100  and  _103
REMARK   42  A    between atoms: _103  and  _104
REMARK   43  A    between atoms: _107  and  _109
REMARK   44  A    between atoms: _109  and  _110
REMARK   45  A    between atoms: _109  and  _112
REMARK   46  A    between atoms: _112  and  _113
REMARK   47  A    between atoms: _113  and  _148
REMARK   48  A    between atoms: _114  and  _116
REMARK   49  A    between atoms: _116  and  _117
REMARK   50  A    between atoms: _119  and  _121
REMARK   51  A    between atoms: _121  and  _122
REMARK   52  A    between atoms: _125  and  _127
REMARK   53  A    between atoms: _127  and  _128
REMARK   54  A    between atoms: _131  and  _133
REMARK   55  A    between atoms: _133  and  _134
REMARK   56  A    between atoms: _133  and  _136
REMARK   57  A    between atoms: _136  and  _137
REMARK   58  A    between atoms: _142  and  _144
REMARK   59  A    between atoms: _144  and  _145
REMARK   60  A    between atoms: _144  and  _147
REMARK   61  A    between atoms: _147  and  _148
REMARK   62  A    between atoms: _149  and  _151
REMARK   63  A    between atoms: _151  and  _152
REMARK   64  A    between atoms: _151  and  _154
REMARK   65  A    between atoms: _154  and  _155
REMARK   66  A    between atoms: _161  and  _163
REMARK   67  A    between atoms: _163  and  _164
REMARK   68  A    between atoms: _163  and  _166
REMARK   69  A    between atoms: _166  and  _167
REMARK   70  A    between atoms: _172  and  _173
REMARK   71  A    between atoms: _175  and  _177
REMARK   72  A    between atoms: _177  and  _178
REMARK   73  A    between atoms: _177  and  _180
REMARK   74  A    between atoms: _183  and  _185
REMARK   75  A    between atoms: _185  and  _186
REMARK   76  A    between atoms: _189  and  _191
REMARK   77  A    between atoms: _191  and  _192
REMARK   78  A    between atoms: _191  and  _194
REMARK   79  A    between atoms: _194  and  _195
REMARK   80  A    between atoms: _198  and  _200
REMARK   81  A    between atoms: _200  and  _201
REMARK   82  A    between atoms: _200  and  _203
REMARK   83  A    between atoms: _206  and  _208
REMARK   84  A    between atoms: _208  and  _209
REMARK   85  A    between atoms: _208  and  _211
REMARK   86  A    between atoms: _211  and  _212
REMARK   87  A    between atoms: _222  and  _224
REMARK   88  A    between atoms: _224  and  _225
REMARK   89  A    between atoms: _227  and  _229
REMARK   90  A    between atoms: _229  and  _230
REMARK   91  A    between atoms: _229  and  _232
REMARK   92  A    between atoms: _232  and  _233
REMARK   93  A    between atoms: _238  and  _239
REMARK   94  A    between atoms: _241  and  _243
REMARK   95  A    between atoms: _243  and  _244
REMARK   96  A    between atoms: _243  and  _246
REMARK   97  A    between atoms: _246  and  _247
REMARK   98  A    between atoms: _250  and  _252
REMARK   99  A    between atoms: _252  and  _253
REMARK  100  A    between atoms: _252  and  _255
REMARK  101  A    between atoms: _255  and  _256
REMARK  102  A    between atoms: _259  and  _261
REMARK  103  A    between atoms: _261  and  _262
REMARK  104  A    between atoms: _261  and  _264
REMARK  105  A    between atoms: _264  and  _265
REMARK  106  A    between atoms: _265  and  _266
REMARK  107  A    between atoms: _266  and  _267
REMARK  108  A    between atoms: _267  and  _268
REMARK  109  A    between atoms: _272  and  _274
REMARK  110  A    between atoms: _274  and  _275
REMARK  111  A    between atoms: _274  and  _277
REMARK  112  A    between atoms: _277  and  _278
REMARK  113  A    between atoms: _281  and  _283
REMARK  114  A    between atoms: _283  and  _284
REMARK  115  A    between atoms: _283  and  _286
REMARK  116  A    between atoms: _286  and  _287
REMARK  117  A    between atoms: _287  and  _288
REMARK  118  A    between atoms: _293  and  _295
REMARK  119  A    between atoms: _295  and  _296
REMARK  120  A    between atoms: _295  and  _298
REMARK  121  A    between atoms: _298  and  _299
REMARK  122  A    between atoms: _304  and  _305
REMARK  123  A    between atoms: _307  and  _309
REMARK  124  A    between atoms: _309  and  _310
REMARK  125  A    between atoms: _309  and  _312
REMARK  126  A    between atoms: _312  and  _313
REMARK  127  A    between atoms: _316  and  _318
REMARK  128  A    between atoms: _318  and  _319
REMARK  129  A    between atoms: _318  and  _321
REMARK  130  A    between atoms: _323  and  _325
REMARK  131  A    between atoms: _325  and  _326
REMARK  132  A    between atoms: _329  and  _331
REMARK  133  A    between atoms: _331  and  _332
REMARK  134  A    between atoms: _331  and  _334
REMARK  135  A    between atoms: _334  and  _335
REMARK  136  A    between atoms: _335  and  _336
REMARK  137  A    between atoms: _336  and  _337
REMARK  138  A    between atoms: _337  and  _338
REMARK  139  A    between atoms: _342  and  _344
REMARK  140  A    between atoms: _344  and  _345
REMARK  141  A    between atoms: _344  and  _347
REMARK  142  A    between atoms: _347  and  _348
REMARK  143  A    between atoms: _351  and  _353
REMARK  144  A    between atoms: _353  and  _354
REMARK  145  A    between atoms: _357  and  _359
REMARK  146  A    between atoms: _359  and  _360
REMARK  147  A    between atoms: _359  and  _362
REMARK  148  A    between atoms: _362  and  _363
REMARK  149  A    between atoms: _363  and  _486
REMARK  150  A    between atoms: _364  and  _366
REMARK  151  A    between atoms: _366  and  _367
REMARK  152  A    between atoms: _366  and  _369
REMARK  153  A    between atoms: _369  and  _370
REMARK  154  A    between atoms: _370  and  _371
REMARK  155  A    between atoms: _371  and  _372
REMARK  156  A    between atoms: _372  and  _373
REMARK  157  A    between atoms: _377  and  _379
REMARK  158  A    between atoms: _379  and  _380
REMARK  159  A    between atoms: _382  and  _384
REMARK  160  A    between atoms: _384  and  _385
REMARK  161  A    between atoms: _384  and  _387
REMARK  162  A    between atoms: _387  and  _388
REMARK  163  A    between atoms: _391  and  _393
REMARK  164  A    between atoms: _393  and  _394
REMARK  165  A    between atoms: _393  and  _396
REMARK  166  A    between atoms: _396  and  _397
REMARK  167  A    between atoms: _399  and  _401
REMARK  168  A    between atoms: _401  and  _402
REMARK  169  A    between atoms: _404  and  _406
REMARK  170  A    between atoms: _406  and  _407
REMARK  171  A    between atoms: _409  and  _411
REMARK  172  A    between atoms: _411  and  _412
REMARK  173  A    between atoms: _411  and  _414
REMARK  174  A    between atoms: _414  and  _415
REMARK  175  A    between atoms: _418  and  _420
REMARK  176  A    between atoms: _420  and  _421
REMARK  177  A    between atoms: _420  and  _423
REMARK  178  A    between atoms: _423  and  _424
REMARK  179  A    between atoms: _427  and  _429
REMARK  180  A    between atoms: _429  and  _430
REMARK  181  A    between atoms: _429  and  _432
REMARK  182  A    between atoms: _432  and  _433
REMARK  183  A    between atoms: _436  and  _438
REMARK  184  A    between atoms: _438  and  _439
REMARK  185  A    between atoms: _438  and  _441
REMARK  186  A    between atoms: _441  and  _442
REMARK  187  A    between atoms: _444  and  _446
REMARK  188  A    between atoms: _446  and  _447
REMARK  189  A    between atoms: _446  and  _449
REMARK  190  A    between atoms: _449  and  _450
REMARK  191  A    between atoms: _460  and  _462
REMARK  192  A    between atoms: _462  and  _463
REMARK  193  A    between atoms: _465  and  _467
REMARK  194  A    between atoms: _467  and  _468
REMARK  195  A    between atoms: _467  and  _470
REMARK  196  A    between atoms: _470  and  _471
REMARK  197  A    between atoms: _471  and  _472
REMARK  198  A    between atoms: _475  and  _477
REMARK  199  A    between atoms: _477  and  _478
REMARK  200  A    between atoms: _480  and  _482
REMARK  201  A    between atoms: _482  and  _483
REMARK  202  A    between atoms: _482  and  _485
REMARK  203  A    between atoms: _485  and  _486
REMARK  204  A    between atoms: _487  and  _489
REMARK  205  A    between atoms: _489  and  _490
REMARK  206  A    between atoms: _493  and  _495
REMARK  207  A    between atoms: _495  and  _496
REMARK  208  A    between atoms: _495  and  _498
REMARK  209  A    between atoms: _498  and  _499
REMARK  210  A    between atoms: _499  and  _500
REMARK  211  A    between atoms: _505  and  _507
REMARK  212  A    between atoms: _507  and  _508
REMARK  213  A    between atoms: _507  and  _510
REMARK  214  A    between atoms: _510  and  _511
REMARK  215  A    between atoms: _511  and  _512
REMARK  216  A    between atoms: _512  and  _513
REMARK  217  A    between atoms: _523  and  _524
REMARK  218  A    between atoms: _529  and  _531
REMARK  219  A    between atoms: _531  and  _532
REMARK  220  A    between atoms: _534  and  _536
REMARK  221  A    between atoms: _536  and  _537
REMARK  222  A    between atoms: _536  and  _539
REMARK  223  A    between atoms: _542  and  _544
REMARK  224  A    between atoms: _544  and  _545
REMARK  225  A    between atoms: _544  and  _547
REMARK  226  A    between atoms: _547  and  _548
REMARK  227  A    between atoms: _553  and  _554
REMARK  228  A    between atoms: _556  and  _558
REMARK  229  A    between atoms: _558  and  _559
REMARK  230  A    between atoms: _558  and  _561
REMARK  231  A    between atoms: _561  and  _562
REMARK                            x       y       z     vdW  Elec       q    Type
REMARK                         _______ _______ _______ _____ _____    ______ ____
ROOT
ATOM      1  O   HOH     1      33.291  -9.402  31.189  0.00  0.00    +0.000 OA
ENDROOT
TORSDOF 0
REMARK  Name = ../refined-set-2016/4x6m/4x6m_pocket.pdb
REMARK  231 active torsions:
REMARK  status: ('A' for Active; 'I' for Inactive)
REMARK    1  A    between atoms: _1  and  _5
REMARK    2  A    between atoms: _5  and  _6
REMARK    3  A    between atoms: _5  and  _8
REMARK    4  A    between atoms: _8  and  _9
REMARK    5  A    between atoms: _12  and  _14
REMARK    6  A    between atoms: _14  and  _15
REMARK    7  A    between atoms: _14  and  _17
REMARK    8  A    between atoms: _20  and  _22
REMARK    9  A    between atoms: _22  and  _23
REMARK   10  A    between atoms: _22  and  _25
REMARK   11  A    between atoms: _25  and  _26
REMARK   12  A    between atoms: _29  and  _31
REMARK   13  A    between atoms: _31  and  _32
REMARK   14  A    between atoms: _31  and  _34
REMARK   15  A    between atoms: _34  and  _35
REMARK   16  A    between atoms: _40  and  _42
REMARK   17  A    between atoms: _42  and  _43
REMARK   18  A    between atoms: _42  and  _45
REMARK   19  A    between atoms: _45  and  _46
REMARK   20  A    between atoms: _49  and  _51
REMARK   21  A    between atoms: _51  and  _52
REMARK   22  A    between atoms: _51  and  _54
REMARK   23  A    between atoms: _54  and  _55
REMARK   24  A    between atoms: _58  and  _60
REMARK   25  A    between atoms: _60  and  _61
REMARK   26  A    between atoms: _60  and  _63
REMARK   27  A    between atoms: _63  and  _64
REMARK   28  A    between atoms: _64  and  _65
REMARK   29  A    between atoms: _70  and  _72
REMARK   30  A    between atoms: _72  and  _73
REMARK   31  A    between atoms: _72  and  _75
REMARK   32  A    between atoms: _75  and  _76
REMARK   33  A    between atoms: _76  and  _77
REMARK   34  A    between atoms: _77  and  _78
REMARK   35  A    between atoms: _87  and  _89
REMARK   36  A    between atoms: _89  and  _90
REMARK   37  A    between atoms: _89  and  _92
REMARK   38  A    between atoms: _92  and  _93
REMARK   39  A    between atoms: _98  and  _100
REMARK   40  A    between atoms: _100  and  _101
REMARK   41  A    between atoms: _100  and  _103
REMARK   42  A    between atoms: _103  and  _104
REMARK   43  A    between atoms: _107  and  _109
REMARK   44  A    between atoms: _109  and  _110
REMARK   45  A    between atoms: _109  and  _112
REMARK   46  A    between atoms: _112  and  _113
REMARK   47  A    between atoms: _113  and  _148
REMARK   48  A    between atoms: _114  and  _116
REMARK   49  A    between atoms: _116  and  _117
REMARK   50  A    between atoms: _119  and  _121
REMARK   51  A    between atoms: _121  and  _122
REMARK   52  A    between atoms: _125  and  _127
REMARK   53  A    between atoms: _127  and  _128
REMARK   54  A    between atoms: _131  and  _133
REMARK   55  A    between atoms: _133  and  _134
REMARK   56  A    between atoms: _133  and  _136
REMARK   57  A    between atoms: _136  and  _137
REMARK   58  A    between atoms: _142  and  _144
REMARK   59  A    between atoms: _144  and  _145
REMARK   60  A    between atoms: _144  and  _147
REMARK   61  A    between atoms: _147  and  _148
REMARK   62  A    between atoms: _149  and  _151
REMARK   63  A    between atoms: _151  and  _152
REMARK   64  A    between atoms: _151  and  _154
REMARK   65  A    between atoms: _154  and  _155
REMARK   66  A    between atoms: _161  and  _163
REMARK   67  A    between atoms: _163  and  _164
REMARK   68  A    between atoms: _163  and  _166
REMARK   69  A    between atoms: _166  and  _167
REMARK   70  A    between atoms: _172  and  _173
REMARK   71  A    between atoms: _175  and  _177
REMARK   72  A    between atoms: _177  and  _178
REMARK   73  A    between atoms: _177  and  _180
REMARK   74  A    between atoms: _183  and  _185
REMARK   75  A    between atoms: _185  and  _186
REMARK   76  A    between atoms: _189  and  _191
REMARK   77  A    between atoms: _191  and  _192
REMARK   78  A    between atoms: _191  and  _194
REMARK   79  A    between atoms: _194  and  _195
REMARK   80  A    between atoms: _198  and  _200
REMARK   81  A    between atoms: _200  and  _201
REMARK   82  A    between atoms: _200  and  _203
REMARK   83  A    between atoms: _206  and  _208
REMARK   84  A    between atoms: _208  and  _209
REMARK   85  A    between atoms: _208  and  _211
REMARK   86  A    between atoms: _211  and  _212
REMARK   87  A    between atoms: _222  and  _224
REMARK   88  A    between atoms: _224  and  _225
REMARK   89  A    between atoms: _227  and  _229
REMARK   90  A    between atoms: _229  and  _230
REMARK   91  A    between atoms: _229  and  _232
REMARK   92  A    between atoms: _232  and  _233
REMARK   93  A    between atoms: _238  and  _239
REMARK   94  A    between atoms: _241  and  _243
REMARK   95  A    between atoms: _243  and  _244
REMARK   96  A    between atoms: _243  and  _246
REMARK   97  A    between atoms: _246  and  _247
REMARK   98  A    between atoms: _250  and  _252
REMARK   99  A    between atoms: _252  and  _253
REMARK  100  A    between atoms: _252  and  _255
REMARK  101  A    between atoms: _255  and  _256
REMARK  102  A    between atoms: _259  and  _261
REMARK  103  A    between atoms: _261  and  _262
REMARK  104  A    between atoms: _261  and  _264
REMARK  105  A    between atoms: _264  and  _265
REMARK  106  A    between atoms: _265  and  _266
REMARK  107  A    between atoms: _266  and  _267
REMARK  108  A    between atoms: _267  and  _268
REMARK  109  A    between atoms: _272  and  _274
REMARK  110  A    between atoms: _274  and  _275
REMARK  111  A    between atoms: _274  and  _277
REMARK  112  A    between atoms: _277  and  _278
REMARK  113  A    between atoms: _281  and  _283
REMARK  114  A    between atoms: _283  and  _284
REMARK  115  A    between atoms: _283  and  _286
REMARK  116  A    between atoms: _286  and  _287
REMARK  117  A    between atoms: _287  and  _288
REMARK  118  A    between atoms: _293  and  _295
REMARK  119  A    between atoms: _295  and  _296
REMARK  120  A    between atoms: _295  and  _298
REMARK  121  A    between atoms: _298  and  _299
REMARK  122  A    between atoms: _304  and  _305
REMARK  123  A    between atoms: _307  and  _309
REMARK  124  A    between atoms: _309  and  _310
REMARK  125  A    between atoms: _309  and  _312
REMARK  126  A    between atoms: _312  and  _313
REMARK  127  A    between atoms: _316  and  _318
REMARK  128  A    between atoms: _318  and  _319
REMARK  129  A    between atoms: _318  and  _321
REMARK  130  A    between atoms: _323  and  _325
REMARK  131  A    between atoms: _325  and  _326
REMARK  132  A    between atoms: _329  and  _331
REMARK  133  A    between atoms: _331  and  _332
REMARK  134  A    between atoms: _331  and  _334
REMARK  135  A    between atoms: _334  and  _335
REMARK  136  A    between atoms: _335  and  _336
REMARK  137  A    between atoms: _336  and  _337
REMARK  138  A    between atoms: _337  and  _338
REMARK  139  A    between atoms: _342  and  _344
REMARK  140  A    between atoms: _344  and  _345
REMARK  141  A    between atoms: _344  and  _347
REMARK  142  A    between atoms: _347  and  _348
REMARK  143  A    between atoms: _351  and  _353
REMARK  144  A    between atoms: _353  and  _354
REMARK  145  A    between atoms: _357  and  _359
REMARK  146  A    between atoms: _359  and  _360
REMARK  147  A    between atoms: _359  and  _362
REMARK  148  A    between atoms: _362  and  _363
REMARK  149  A    between atoms: _363  and  _486
REMARK  150  A    between atoms: _364  and  _366
REMARK  151  A    between atoms: _366  and  _367
REMARK  152  A    between atoms: _366  and  _369
REMARK  153  A    between atoms: _369  and  _370
REMARK  154  A    between atoms: _370  and  _371
REMARK  155  A    between atoms: _371  and  _372
REMARK  156  A    between atoms: _372  and  _373
REMARK  157  A    between atoms: _377  and  _379
REMARK  158  A    between atoms: _379  and  _380
REMARK  159  A    between atoms: _382  and  _384
REMARK  160  A    between atoms: _384  and  _385
REMARK  161  A    between atoms: _384  and  _387
REMARK  162  A    between atoms: _387  and  _388
REMARK  163  A    between atoms: _391  and  _393
REMARK  164  A    between atoms: _393  and  _394
REMARK  165  A    between atoms: _393  and  _396
REMARK  166  A    between atoms: _396  and  _397
REMARK  167  A    between atoms: _399  and  _401
REMARK  168  A    between atoms: _401  and  _402
REMARK  169  A    between atoms: _404  and  _406
REMARK  170  A    between atoms: _406  and  _407
REMARK  171  A    between atoms: _409  and  _411
REMARK  172  A    between atoms: _411  and  _412
REMARK  173  A    between atoms: _411  and  _414
REMARK  174  A    between atoms: _414  and  _415
REMARK  175  A    between atoms: _418  and  _420
REMARK  176  A    between atoms: _420  and  _421
REMARK  177  A    between atoms: _420  and  _423
REMARK  178  A    between atoms: _423  and  _424
REMARK  179  A    between atoms: _427  and  _429
REMARK  180  A    between atoms: _429  and  _430
REMARK  181  A    between atoms: _429  and  _432
REMARK  182  A    between atoms: _432  and  _433
REMARK  183  A    between atoms: _436  and  _438
REMARK  184  A    between atoms: _438  and  _439
REMARK  185  A    between atoms: _438  and  _441
REMARK  186  A    between atoms: _441  and  _442
REMARK  187  A    between atoms: _444  and  _446
REMARK  188  A    between atoms: _446  and  _447
REMARK  189  A    between atoms: _446  and  _449
REMARK  190  A    between atoms: _449  and  _450
REMARK  191  A    between atoms: _460  and  _462
REMARK  192  A    between atoms: _462  and  _463
REMARK  193  A    between atoms: _465  and  _467
REMARK  194  A    between atoms: _467  and  _468
REMARK  195  A    between atoms: _467  and  _470
REMARK  196  A    between atoms: _470  and  _471
REMARK  197  A    between atoms: _471  and  _472
REMARK  198  A    between atoms: _475  and  _477
REMARK  199  A    between atoms: _477  and  _478
REMARK  200  A    between atoms: _480  and  _482
REMARK  201  A    between atoms: _482  and  _483
REMARK  202  A    between atoms: _482  and  _485
REMARK  203  A    between atoms: _485  and  _486
REMARK  204  A    between atoms: _487  and  _489
REMARK  205  A    between atoms: _489  and  _490
REMARK  206  A    between atoms: _493  and  _495
REMARK  207  A    between atoms: _495  and  _496
REMARK  208  A    between atoms: _495  and  _498
REMARK  209  A    between atoms: _498  and  _499
REMARK  210  A    between atoms: _499  and  _500
REMARK  211  A    between atoms: _505  and  _507
REMARK  212  A    between atoms: _507  and  _508
REMARK  213  A    between atoms: _507  and  _510
REMARK  214  A    between atoms: _510  and  _511
REMARK  215  A    between atoms: _511  and  _512
REMARK  216  A    between atoms: _512  and  _513
REMARK  217  A    between atoms: _523  and  _524
REMARK  218  A    between atoms: _529  and  _531
REMARK  219  A    between atoms: _531  and  _532
REMARK  220  A    between atoms: _534  and  _536
REMARK  221  A    between atoms: _536  and  _537
REMARK  222  A    between atoms: _536  and  _539
REMARK  223  A    between atoms: _542  and  _544
REMARK  224  A    between atoms: _544  and  _545
REMARK  225  A    between atoms: _544  and  _547
REMARK  226  A    between atoms: _547  and  _548
REMARK  227  A    between atoms: _553  and  _554
REMARK  228  A    between atoms: _556  and  _558
REMARK  229  A    between atoms: _558  and  _559
REMARK  230  A    between atoms: _558  and  _561
REMARK  231  A    between atoms: _561  and  _562
REMARK                            x       y       z     vdW  Elec       q    Type
REMARK                         _______ _______ _______ _____ _____    ______ ____
ROOT
ATOM      1  O   HOH     1      52.249 -18.004  36.563  0.00  0.00    +0.000 OA
ENDROOT
TORSDOF 0
