REMARK  Name = ../refined-set-2016/4bcp/4bcp_pocket.pdb
REMARK  217 active torsions:
REMARK  status: ('A' for Active; 'I' for Inactive)
REMARK    1  A    between atoms: _1  and  _3
REMARK    2  A    between atoms: _3  and  _4
REMARK    3  A    between atoms: _3  and  _6
REMARK    4  A    between atoms: _6  and  _7
REMARK    5  A    between atoms: _7  and  _8
REMARK    6  A    between atoms: _11  and  _13
REMARK    7  A    between atoms: _13  and  _14
REMARK    8  A    between atoms: _13  and  _16
REMARK    9  A    between atoms: _16  and  _17
REMARK   10  A    between atoms: _17  and  _18
REMARK   11  A    between atoms: _18  and  _19
REMARK   12  A    between atoms: _19  and  _20
REMARK   13  A    between atoms: _24  and  _26
REMARK   14  A    between atoms: _26  and  _27
REMARK   15  A    between atoms: _26  and  _29
REMARK   16  A    between atoms: _29  and  _30
REMARK   17  A    between atoms: _33  and  _35
REMARK   18  A    between atoms: _35  and  _36
REMARK   19  A    between atoms: _38  and  _40
REMARK   20  A    between atoms: _40  and  _41
REMARK   21  A    between atoms: _40  and  _43
REMARK   22  A    between atoms: _43  and  _44
REMARK   23  A    between atoms: _44  and  _45
REMARK   24  A    between atoms: _48  and  _50
REMARK   25  A    between atoms: _50  and  _51
REMARK   26  A    between atoms: _53  and  _55
REMARK   27  A    between atoms: _55  and  _56
REMARK   28  A    between atoms: _55  and  _58
REMARK   29  A    between atoms: _58  and  _59
REMARK   30  A    between atoms: _62  and  _64
REMARK   31  A    between atoms: _64  and  _65
REMARK   32  A    between atoms: _64  and  _67
REMARK   33  A    between atoms: _67  and  _68
REMARK   34  A    between atoms: _73  and  _74
REMARK   35  A    between atoms: _76  and  _78
REMARK   36  A    between atoms: _78  and  _79
REMARK   37  A    between atoms: _81  and  _83
REMARK   38  A    between atoms: _83  and  _84
REMARK   39  A    between atoms: _83  and  _86
REMARK   40  A    between atoms: _89  and  _91
REMARK   41  A    between atoms: _91  and  _92
REMARK   42  A    between atoms: _91  and  _94
REMARK   43  A    between atoms: _97  and  _99
REMARK   44  A    between atoms: _99  and  _100
REMARK   45  A    between atoms: _99  and  _102
REMARK   46  A    between atoms: _102  and  _103
REMARK   47  A    between atoms: _108  and  _109
REMARK   48  A    between atoms: _111  and  _113
REMARK   49  A    between atoms: _113  and  _114
REMARK   50  A    between atoms: _113  and  _116
REMARK   51  A    between atoms: _116  and  _117
REMARK   52  A    between atoms: _117  and  _118
REMARK   53  A    between atoms: _118  and  _119
REMARK   54  A    between atoms: _119  and  _120
REMARK   55  A    between atoms: _124  and  _126
REMARK   56  A    between atoms: _126  and  _127
REMARK   57  A    between atoms: _130  and  _132
REMARK   58  A    between atoms: _132  and  _133
REMARK   59  A    between atoms: _132  and  _135
REMARK   60  A    between atoms: _138  and  _140
REMARK   61  A    between atoms: _140  and  _141
REMARK   62  A    between atoms: _140  and  _143
REMARK   63  A    between atoms: _146  and  _148
REMARK   64  A    between atoms: _148  and  _149
REMARK   65  A    between atoms: _152  and  _154
REMARK   66  A    between atoms: _154  and  _155
REMARK   67  A    between atoms: _154  and  _157
REMARK   68  A    between atoms: _157  and  _158
REMARK   69  A    between atoms: _161  and  _163
REMARK   70  A    between atoms: _163  and  _164
REMARK   71  A    between atoms: _163  and  _166
REMARK   72  A    between atoms: _166  and  _167
REMARK   73  A    between atoms: _167  and  _168
REMARK   74  A    between atoms: _168  and  _169
REMARK   75  A    between atoms: _169  and  _170
REMARK   76  A    between atoms: _174  and  _176
REMARK   77  A    between atoms: _176  and  _177
REMARK   78  A    between atoms: _176  and  _179
REMARK   79  A    between atoms: _179  and  _180
REMARK   80  A    between atoms: _180  and  _181
REMARK   81  A    between atoms: _181  and  _182
REMARK   82  A    between atoms: _182  and  _183
REMARK   83  A    between atoms: _187  and  _189
REMARK   84  A    between atoms: _189  and  _190
REMARK   85  A    between atoms: _189  and  _192
REMARK   86  A    between atoms: _192  and  _193
REMARK   87  A    between atoms: _193  and  _194
REMARK   88  A    between atoms: _197  and  _199
REMARK   89  A    between atoms: _199  and  _200
REMARK   90  A    between atoms: _199  and  _202
REMARK   91  A    between atoms: _202  and  _203
REMARK   92  A    between atoms: _206  and  _208
REMARK   93  A    between atoms: _208  and  _209
REMARK   94  A    between atoms: _208  and  _211
REMARK   95  A    between atoms: _211  and  _212
REMARK   96  A    between atoms: _215  and  _217
REMARK   97  A    between atoms: _217  and  _218
REMARK   98  A    between atoms: _217  and  _220
REMARK   99  A    between atoms: _223  and  _225
REMARK  100  A    between atoms: _225  and  _226
REMARK  101  A    between atoms: _225  and  _228
REMARK  102  A    between atoms: _228  and  _229
REMARK  103  A    between atoms: _229  and  _230
REMARK  104  A    between atoms: _230  and  _231
REMARK  105  A    between atoms: _231  and  _232
REMARK  106  A    between atoms: _236  and  _238
REMARK  107  A    between atoms: _238  and  _239
REMARK  108  A    between atoms: _238  and  _241
REMARK  109  A    between atoms: _241  and  _242
REMARK  110  A    between atoms: _245  and  _247
REMARK  111  A    between atoms: _247  and  _248
REMARK  112  A    between atoms: _247  and  _250
REMARK  113  A    between atoms: _250  and  _251
REMARK  114  A    between atoms: _254  and  _256
REMARK  115  A    between atoms: _256  and  _257
REMARK  116  A    between atoms: _256  and  _259
REMARK  117  A    between atoms: _259  and  _260
REMARK  118  A    between atoms: _263  and  _265
REMARK  119  A    between atoms: _265  and  _266
REMARK  120  A    between atoms: _265  and  _268
REMARK  121  A    between atoms: _271  and  _273
REMARK  122  A    between atoms: _273  and  _274
REMARK  123  A    between atoms: _273  and  _276
REMARK  124  A    between atoms: _276  and  _277
REMARK  125  A    between atoms: _283  and  _285
REMARK  126  A    between atoms: _285  and  _286
REMARK  127  A    between atoms: _285  and  _288
REMARK  128  A    between atoms: _288  and  _289
REMARK  129  A    between atoms: _289  and  _290
REMARK  130  A    between atoms: _293  and  _295
REMARK  131  A    between atoms: _295  and  _296
REMARK  132  A    between atoms: _295  and  _298
REMARK  133  A    between atoms: _298  and  _299
REMARK  134  A    between atoms: _305  and  _307
REMARK  135  A    between atoms: _307  and  _308
REMARK  136  A    between atoms: _307  and  _310
REMARK  137  A    between atoms: _310  and  _311
REMARK  138  A    between atoms: _314  and  _316
REMARK  139  A    between atoms: _316  and  _317
REMARK  140  A    between atoms: _316  and  _319
REMARK  141  A    between atoms: _319  and  _320
REMARK  142  A    between atoms: _325  and  _327
REMARK  143  A    between atoms: _327  and  _328
REMARK  144  A    between atoms: _327  and  _330
REMARK  145  A    between atoms: _330  and  _331
REMARK  146  A    between atoms: _331  and  _332
REMARK  147  A    between atoms: _337  and  _339
REMARK  148  A    between atoms: _339  and  _340
REMARK  149  A    between atoms: _339  and  _342
REMARK  150  A    between atoms: _342  and  _343
REMARK  151  A    between atoms: _346  and  _348
REMARK  152  A    between atoms: _348  and  _349
REMARK  153  A    between atoms: _348  and  _351
REMARK  154  A    between atoms: _351  and  _352
REMARK  155  A    between atoms: _355  and  _357
REMARK  156  A    between atoms: _357  and  _358
REMARK  157  A    between atoms: _357  and  _360
REMARK  158  A    between atoms: _360  and  _361
REMARK  159  A    between atoms: _361  and  _362
REMARK  160  A    between atoms: _362  and  _363
REMARK  161  A    between atoms: _363  and  _364
REMARK  162  A    between atoms: _368  and  _370
REMARK  163  A    between atoms: _370  and  _371
REMARK  164  A    between atoms: _370  and  _373
REMARK  165  A    between atoms: _373  and  _374
REMARK  166  A    between atoms: _374  and  _375
REMARK  167  A    between atoms: _375  and  _376
REMARK  168  A    between atoms: _376  and  _377
REMARK  169  A    between atoms: _381  and  _383
REMARK  170  A    between atoms: _383  and  _384
REMARK  171  A    between atoms: _383  and  _386
REMARK  172  A    between atoms: _386  and  _387
REMARK  173  A    between atoms: _390  and  _392
REMARK  174  A    between atoms: _392  and  _393
REMARK  175  A    between atoms: _392  and  _395
REMARK  176  A    between atoms: _395  and  _396
REMARK  177  A    between atoms: _396  and  _397
REMARK  178  A    between atoms: _397  and  _398
REMARK  179  A    between atoms: _398  and  _399
REMARK  180  A    between atoms: _404  and  _405
REMARK  181  A    between atoms: _410  and  _412
REMARK  182  A    between atoms: _412  and  _413
REMARK  183  A    between atoms: _412  and  _415
REMARK  184  A    between atoms: _415  and  _416
REMARK  185  A    between atoms: _416  and  _417
REMARK  186  A    between atoms: _422  and  _424
REMARK  187  A    between atoms: _424  and  _425
REMARK  188  A    between atoms: _424  and  _427
REMARK  189  A    between atoms: _427  and  _428
REMARK  190  A    between atoms: _433  and  _435
REMARK  191  A    between atoms: _435  and  _436
REMARK  192  A    between atoms: _435  and  _438
REMARK  193  A    between atoms: _438  and  _439
REMARK  194  A    between atoms: _442  and  _444
REMARK  195  A    between atoms: _444  and  _445
REMARK  196  A    between atoms: _444  and  _447
REMARK  197  A    between atoms: _447  and  _448
REMARK  198  A    between atoms: _451  and  _453
REMARK  199  A    between atoms: _453  and  _454
REMARK  200  A    between atoms: _453  and  _456
REMARK  201  A    between atoms: _456  and  _457
REMARK  202  A    between atoms: _460  and  _462
REMARK  203  A    between atoms: _462  and  _463
REMARK  204  A    between atoms: _462  and  _465
REMARK  205  A    between atoms: _465  and  _466
REMARK  206  A    between atoms: _469  and  _471
REMARK  207  A    between atoms: _471  and  _472
REMARK  208  A    between atoms: _475  and  _477
REMARK  209  A    between atoms: _477  and  _478
REMARK  210  A    between atoms: _477  and  _480
REMARK  211  A    between atoms: _480  and  _481
REMARK  212  A    between atoms: _484  and  _486
REMARK  213  A    between atoms: _486  and  _487
REMARK  214  A    between atoms: _486  and  _489
REMARK  215  A    between atoms: _489  and  _490
REMARK  216  A    between atoms: _496  and  _498
REMARK  217  A    between atoms: _498  and  _499
REMARK                            x       y       z     vdW  Elec       q    Type
REMARK                         _______ _______ _______ _____ _____    ______ ____
ROOT
ATOM      1  CA  TYR A   8       1.995  12.722  17.506  0.00  0.00    +0.153 C 
ENDROOT
BRANCH   1   2
ATOM      2  C   TYR A   8       2.542  12.629  18.926  0.00  0.00    +0.241 C 
ATOM      3  N   GLY A   9       1.842  11.906  19.793  0.00  0.00    -0.295 N 
ATOM      4  H   GLY A   9       0.966  11.440  19.480  0.00  0.00    +0.150 HD
ATOM      5  O   TYR A   8       3.579  13.214  19.234  0.00  0.00    -0.273 OA
BRANCH   3   6
ATOM      6  CA  GLY A   9       2.277  11.754  21.169  0.00  0.00    +0.176 C 
BRANCH   6   7
ATOM      7  C   GLY A   9       1.917  12.934  22.056  0.00  0.00    +0.243 C 
ATOM      8  N   VAL A  10       2.263  12.827  23.336  0.00  0.00    -0.297 N 
ATOM      9  H   VAL A  10       2.797  11.989  23.643  0.00  0.00    +0.150 HD
ATOM     10  O   GLY A   9       1.345  13.923  21.595  0.00  0.00    -0.273 OA
BRANCH   8  11
ATOM     11  CA  VAL A  10       1.919  13.845  24.324  0.00  0.00    +0.149 C 
BRANCH  11  12
ATOM     12  C   VAL A  10       3.170  14.473  24.939  0.00  0.00    +0.241 C 
ATOM     13  N   VAL A  11       3.112  15.776  25.199  0.00  0.00    -0.297 N 
ATOM     14  H   VAL A  11       2.214  16.282  25.057  0.00  0.00    +0.150 HD
ATOM     15  O   VAL A  10       4.165  13.788  25.176  0.00  0.00    -0.273 OA
BRANCH  13  16
ATOM     16  CA  VAL A  11       4.276  16.514  25.679  0.00  0.00    +0.149 C 
BRANCH  16  17
ATOM     17  C   VAL A  11       4.133  16.970  27.128  0.00  0.00    +0.241 C 
ATOM     18  N   TYR A  12       5.183  16.752  27.912  0.00  0.00    -0.297 N 
ATOM     19  H   TYR A  12       6.002  16.241  27.526  0.00  0.00    +0.150 HD
ATOM     20  O   VAL A  11       3.100  17.508  27.523  0.00  0.00    -0.273 OA
BRANCH  18  21
ATOM     21  CA  TYR A  12       5.223  17.206  29.293  0.00  0.00    +0.153 C 
BRANCH  21  22
ATOM     22  C   TYR A  12       6.450  18.071  29.533  0.00  0.00    +0.241 C 
ATOM     23  N   LYS A  13       6.318  19.038  30.431  0.00  0.00    -0.297 N 
ATOM     24  H   LYS A  13       5.366  19.301  30.758  0.00  0.00    +0.150 HD
ATOM     25  O   TYR A  12       7.496  17.859  28.927  0.00  0.00    -0.273 OA
BRANCH  23  26
ATOM     26  CA  LYS A  13       7.471  19.737  30.968  0.00  0.00    +0.149 C 
BRANCH  26  27
ATOM     27  C   LYS A  13       8.017  18.905  32.127  0.00  0.00    +0.241 C 
ATOM     28  O   LYS A  13       7.266  18.492  33.006  0.00  0.00    -0.273 OA
ATOM     29  N   ALA A  14       9.318  18.638  32.117  0.00  0.00    -0.298 N 
ATOM     30  H   ALA A  14       9.910  19.006  31.345  0.00  0.00    +0.150 HD
BRANCH  29  31
ATOM     31  CA  ALA A  14       9.929  17.837  33.171  0.00  0.00    +0.137 C 
ATOM     32  CB  ALA A  14      10.114  16.394  32.712  0.00  0.00    +0.030 C 
BRANCH  31  33
ATOM     33  C   ALA A  14      11.260  18.438  33.600  0.00  0.00    +0.227 C 
ATOM     34  O   ALA A  14      11.800  19.312  32.926  0.00  0.00    -0.286 OA
ENDBRANCH  31  33
ENDBRANCH  29  31
ENDBRANCH  26  27
BRANCH  26  35
ATOM     35  CB  LYS A  13       7.074  21.132  31.453  0.00  0.00    +0.029 C 
BRANCH  35  36
ATOM     36  CG  LYS A  13       8.196  21.898  32.136  0.00  0.00    +0.000 C 
BRANCH  36  37
ATOM     37  CD  LYS A  13       7.728  23.273  32.589  0.00  0.00    -0.024 C 
BRANCH  37  38
ATOM     38  CE  LYS A  13       8.844  24.047  33.271  0.00  0.00    -0.086 C 
BRANCH  38  39
ATOM     39  NZ  LYS A  13       8.395  25.403  33.690  0.00  0.00    +0.380 N 
ATOM     40  HZ1 LYS A  13       7.602  25.314  34.357  0.00  0.00    -0.089 HD
ATOM     41  HZ2 LYS A  13       9.183  25.901  34.151  0.00  0.00    -0.089 HD
ATOM     42  HZ3 LYS A  13       8.087  25.939  32.853  0.00  0.00    -0.089 HD
ENDBRANCH  38  39
ENDBRANCH  37  38
ENDBRANCH  36  37
ENDBRANCH  35  36
ENDBRANCH  26  35
ENDBRANCH  23  26
ENDBRANCH  21  22
BRANCH  21  43
ATOM     43  CB  TYR A  12       5.298  16.018  30.252  0.00  0.00    +0.055 C 
BRANCH  43  44
ATOM     44  CG  TYR A  12       4.244  14.960  30.046  0.00  0.00    -0.020 A 
ATOM     45  CD2 TYR A  12       3.081  14.955  30.805  0.00  0.00    -0.001 A 
ATOM     46  CE2 TYR A  12       2.117  13.982  30.624  0.00  0.00    +0.036 A 
ATOM     47  CZ  TYR A  12       2.314  12.993  29.682  0.00  0.00    +0.134 A 
ATOM     48  CE1 TYR A  12       3.466  12.973  28.922  0.00  0.00    +0.036 A 
ATOM     49  CD1 TYR A  12       4.423  13.951  29.109  0.00  0.00    -0.001 A 
BRANCH  47  50
ATOM     50  OH  TYR A  12       1.358  12.018  29.497  0.00  0.00    -0.506 OA
ATOM     51  HH  TYR A  12       1.657  11.394  28.789  0.00  0.00    +0.292 HD
ENDBRANCH  47  50
ENDBRANCH  43  44
ENDBRANCH  21  43
ENDBRANCH  18  21
ENDBRANCH  16  17
BRANCH  16  52
ATOM     52  CB  VAL A  11       4.560  17.744  24.796  0.00  0.00    +0.027 C 
ATOM     53  CG2 VAL A  11       5.882  18.392  25.192  0.00  0.00    +0.002 C 
ATOM     54  CG1 VAL A  11       4.580  17.344  23.332  0.00  0.00    +0.002 C 
ENDBRANCH  16  52
ENDBRANCH  13  16
ENDBRANCH  11  12
BRANCH  11  55
ATOM     55  CB  VAL A  10       1.034  13.254  25.438  0.00  0.00    +0.027 C 
ATOM     56  CG2 VAL A  10       0.702  14.310  26.479  0.00  0.00    +0.002 C 
ATOM     57  CG1 VAL A  10      -0.235  12.666  24.840  0.00  0.00    +0.002 C 
ENDBRANCH  11  55
ENDBRANCH   8  11
ENDBRANCH   6   7
ENDBRANCH   3   6
ENDBRANCH   1   2
BRANCH   1  59
ATOM     58  C   THR A   7       1.488  14.648  16.091  0.00  0.00    +0.243 C 
ATOM     59  N   TYR A   8       2.254  14.064  17.005  0.00  0.00    -0.297 N 
ATOM     60  H   TYR A   8       3.072  14.587  17.378  0.00  0.00    +0.150 HD
ATOM     61  O   THR A   7       0.579  14.065  15.499  0.00  0.00    -0.273 OA
BRANCH  58  62
ATOM     62  CA  THR A   7       1.797  16.118  15.817  0.00  0.00    +0.176 C 
BRANCH  62  65
ATOM     63  C   GLY A   6       1.791  16.525  18.220  0.00  0.00    +0.243 C 
ATOM     64  O   GLY A   6       0.787  15.832  18.390  0.00  0.00    -0.273 OA
ATOM     65  N   THR A   7       2.326  16.749  17.022  0.00  0.00    -0.295 N 
ATOM     66  H   THR A   7       3.141  17.390  16.943  0.00  0.00    +0.150 HD
BRANCH  63  67
ATOM     67  CA  GLY A   6       2.480  17.177  19.401  0.00  0.00    +0.176 C 
BRANCH  67  69
ATOM     68  C   GLU A   5       0.717  17.708  20.977  0.00  0.00    +0.241 C 
ATOM     69  N   GLY A   6       1.734  16.932  20.620  0.00  0.00    -0.295 N 
ATOM     70  H   GLY A   6       2.001  16.131  21.228  0.00  0.00    +0.150 HD
ATOM     71  O   GLU A   5       0.385  18.710  20.345  0.00  0.00    -0.273 OA
BRANCH  68  72
ATOM     72  CA  GLU A   5      -0.027  17.305  22.244  0.00  0.00    +0.149 C 
BRANCH  72  75
ATOM     73  C   GLY A   4       0.159  18.505  24.348  0.00  0.00    +0.243 C 
ATOM     74  O   GLY A   4       0.689  17.544  24.903  0.00  0.00    -0.273 OA
ATOM     75  N   GLU A   5      -0.256  18.471  23.087  0.00  0.00    -0.297 N 
ATOM     76  H   GLU A   5      -0.755  19.294  22.693  0.00  0.00    +0.150 HD
BRANCH  73  77
ATOM     77  CA  GLY A   4      -0.057  19.806  25.094  0.00  0.00    +0.176 C 
BRANCH  77  80
ATOM     78  C   ILE A   3       1.034  21.096  26.841  0.00  0.00    +0.241 C 
ATOM     79  O   ILE A   3       0.365  22.098  26.600  0.00  0.00    -0.273 OA
ATOM     80  N   GLY A   4       0.898  19.955  26.176  0.00  0.00    -0.295 N 
ATOM     81  H   GLY A   4       1.494  19.144  26.438  0.00  0.00    +0.150 HD
BRANCH  78  82
ATOM     82  CA  ILE A   3       2.082  21.106  27.945  0.00  0.00    +0.149 C 
BRANCH  82  85
ATOM     83  C   LYS A   2       1.330  19.924  29.923  0.00  0.00    +0.241 C 
ATOM     84  O   LYS A   2       0.791  20.932  30.377  0.00  0.00    -0.273 OA
ATOM     85  N   ILE A   3       1.982  19.913  28.768  0.00  0.00    -0.297 N 
ATOM     86  H   ILE A   3       2.431  19.032  28.445  0.00  0.00    +0.150 HD
BRANCH  83  87
ATOM     87  CA  LYS A   2       1.297  18.611  30.687  0.00  0.00    +0.149 C 
BRANCH  87  89
ATOM     88  C   GLU A   1       2.786  19.153  32.512  0.00  0.00    +0.238 C 
ATOM     89  N   LYS A   2       1.556  18.885  32.090  0.00  0.00    -0.297 N 
ATOM     90  H   LYS A   2       0.770  18.871  32.771  0.00  0.00    +0.150 HD
ATOM     91  O   GLU A   1       3.778  19.061  31.787  0.00  0.00    -0.274 OA
BRANCH  88  92
ATOM     92  CA  GLU A   1       2.921  19.587  33.964  0.00  0.00    +0.145 C 
BRANCH  92  93
ATOM     93  N   GLU A   1       4.265  19.333  34.461  0.00  0.00    -0.238 NA
ATOM     94  H   GLU A   1       4.996  19.000  33.800  0.00  0.00    +0.142 HD
ENDBRANCH  92  93
BRANCH  92  95
ATOM     95  CB  GLU A   1       2.583  21.075  34.082  0.00  0.00    +0.038 C 
BRANCH  95  96
ATOM     96  CG  GLU A   1       3.539  21.984  33.323  0.00  0.00    +0.116 C 
BRANCH  96  97
ATOM     97  CD  GLU A   1       3.043  23.414  33.242  0.00  0.00    +0.365 C 
ATOM     98  OE2 GLU A   1       3.752  24.319  33.732  0.00  0.00    -0.246 OA
ATOM     99  OE1 GLU A   1       1.943  23.634  32.691  0.00  0.00    -0.246 OA
ENDBRANCH  96  97
ENDBRANCH  95  96
ENDBRANCH  92  95
ENDBRANCH  88  92
ENDBRANCH  87  89
BRANCH  87 100
ATOM    100  CB  LYS A   2      -0.053  17.919  30.498  0.00  0.00    +0.029 C 
BRANCH 100 101
ATOM    101  CG  LYS A   2      -0.420  17.687  29.038  0.00  0.00    +0.000 C 
BRANCH 101 102
ATOM    102  CD  LYS A   2      -1.758  16.976  28.899  0.00  0.00    -0.024 C 
BRANCH 102 103
ATOM    103  CE  LYS A   2      -2.163  16.829  27.439  0.00  0.00    -0.086 C 
BRANCH 103 104
ATOM    104  NZ  LYS A   2      -3.474  16.134  27.289  0.00  0.00    +0.380 N 
ATOM    105  HZ1 LYS A   2      -4.212  16.680  27.778  0.00  0.00    -0.089 HD
ATOM    106  HZ2 LYS A   2      -3.411  15.183  27.706  0.00  0.00    -0.089 HD
ATOM    107  HZ3 LYS A   2      -3.710  16.056  26.279  0.00  0.00    -0.089 HD
ENDBRANCH 103 104
ENDBRANCH 102 103
ENDBRANCH 101 102
ENDBRANCH 100 101
ENDBRANCH  87 100
ENDBRANCH  83  87
ENDBRANCH  82  85
BRANCH  82 108
ATOM    108  CB  ILE A   3       3.472  21.229  27.309  0.00  0.00    +0.027 C 
ATOM    109  CG2 ILE A   3       3.459  22.290  26.233  0.00  0.00    +0.002 C 
BRANCH 108 110
ATOM    110  CG1 ILE A   3       4.514  21.568  28.374  0.00  0.00    +0.002 C 
ATOM    111  CD1 ILE A   3       5.920  21.693  27.831  0.00  0.00    +0.000 C 
ENDBRANCH 108 110
ENDBRANCH  82 108
ENDBRANCH  78  82
ENDBRANCH  77  80
ENDBRANCH  73  77
ENDBRANCH  72  75
BRANCH  72 112
ATOM    112  CB  GLU A   5      -1.349  16.619  21.887  0.00  0.00    +0.041 C 
BRANCH 112 113
ATOM    113  CG  GLU A   5      -2.136  16.114  23.089  0.00  0.00    +0.116 C 
BRANCH 113 114
ATOM    114  CD  GLU A   5      -3.398  15.370  22.692  0.00  0.00    +0.365 C 
ATOM    115  OE2 GLU A   5      -4.325  15.277  23.527  0.00  0.00    -0.246 OA
ATOM    116  OE1 GLU A   5      -3.465  14.881  21.544  0.00  0.00    -0.246 OA
ENDBRANCH 113 114
ENDBRANCH 112 113
ENDBRANCH  72 112
ENDBRANCH  68  72
ENDBRANCH  67  69
ENDBRANCH  63  67
ENDBRANCH  62  65
BRANCH  62 117
ATOM    117  CB  THR A   7       2.780  16.248  14.634  0.00  0.00    +0.137 C 
ATOM    118  CG2 THR A   7       2.360  15.347  13.485  0.00  0.00    +0.034 C 
BRANCH 117 119
ATOM    119  OG1 THR A   7       2.803  17.608  14.180  0.00  0.00    -0.382 OA
ATOM    120  HG1 THR A   7       3.434  17.691  13.421  0.00  0.00    +0.210 HD
ENDBRANCH 117 119
ENDBRANCH  62 117
ENDBRANCH  58  62
ENDBRANCH   1  59
BRANCH   1 121
ATOM    121  CB  TYR A   8       2.658  11.673  16.611  0.00  0.00    +0.055 C 
BRANCH 121 122
ATOM    122  CG  TYR A   8       4.163  11.799  16.541  0.00  0.00    -0.020 A 
ATOM    123  CD2 TYR A   8       4.969  11.268  17.538  0.00  0.00    -0.001 A 
ATOM    124  CE2 TYR A   8       6.342  11.385  17.482  0.00  0.00    +0.036 A 
ATOM    125  CZ  TYR A   8       6.930  12.035  16.421  0.00  0.00    +0.134 A 
ATOM    126  CE1 TYR A   8       6.154  12.573  15.417  0.00  0.00    +0.036 A 
ATOM    127  CD1 TYR A   8       4.777  12.455  15.481  0.00  0.00    -0.001 A 
BRANCH 125 128
ATOM    128  OH  TYR A   8       8.299  12.147  16.371  0.00  0.00    -0.506 OA
ATOM    129  HH  TYR A   8       8.551  13.104  16.362  0.00  0.00    +0.292 HD
ENDBRANCH 125 128
ENDBRANCH 121 122
ENDBRANCH   1 121
TORSDOF 56
REMARK  Name = ../refined-set-2016/4bcp/4bcp_pocket.pdb
REMARK  217 active torsions:
REMARK  status: ('A' for Active; 'I' for Inactive)
REMARK    1  A    between atoms: _1  and  _3
REMARK    2  A    between atoms: _3  and  _4
REMARK    3  A    between atoms: _3  and  _6
REMARK    4  A    between atoms: _6  and  _7
REMARK    5  A    between atoms: _7  and  _8
REMARK    6  A    between atoms: _11  and  _13
REMARK    7  A    between atoms: _13  and  _14
REMARK    8  A    between atoms: _13  and  _16
REMARK    9  A    between atoms: _16  and  _17
REMARK   10  A    between atoms: _17  and  _18
REMARK   11  A    between atoms: _18  and  _19
REMARK   12  A    between atoms: _19  and  _20
REMARK   13  A    between atoms: _24  and  _26
REMARK   14  A    between atoms: _26  and  _27
REMARK   15  A    between atoms: _26  and  _29
REMARK   16  A    between atoms: _29  and  _30
REMARK   17  A    between atoms: _33  and  _35
REMARK   18  A    between atoms: _35  and  _36
REMARK   19  A    between atoms: _38  and  _40
REMARK   20  A    between atoms: _40  and  _41
REMARK   21  A    between atoms: _40  and  _43
REMARK   22  A    between atoms: _43  and  _44
REMARK   23  A    between atoms: _44  and  _45
REMARK   24  A    between atoms: _48  and  _50
REMARK   25  A    between atoms: _50  and  _51
REMARK   26  A    between atoms: _53  and  _55
REMARK   27  A    between atoms: _55  and  _56
REMARK   28  A    between atoms: _55  and  _58
REMARK   29  A    between atoms: _58  and  _59
REMARK   30  A    between atoms: _62  and  _64
REMARK   31  A    between atoms: _64  and  _65
REMARK   32  A    between atoms: _64  and  _67
REMARK   33  A    between atoms: _67  and  _68
REMARK   34  A    between atoms: _73  and  _74
REMARK   35  A    between atoms: _76  and  _78
REMARK   36  A    between atoms: _78  and  _79
REMARK   37  A    between atoms: _81  and  _83
REMARK   38  A    between atoms: _83  and  _84
REMARK   39  A    between atoms: _83  and  _86
REMARK   40  A    between atoms: _89  and  _91
REMARK   41  A    between atoms: _91  and  _92
REMARK   42  A    between atoms: _91  and  _94
REMARK   43  A    between atoms: _97  and  _99
REMARK   44  A    between atoms: _99  and  _100
REMARK   45  A    between atoms: _99  and  _102
REMARK   46  A    between atoms: _102  and  _103
REMARK   47  A    between atoms: _108  and  _109
REMARK   48  A    between atoms: _111  and  _113
REMARK   49  A    between atoms: _113  and  _114
REMARK   50  A    between atoms: _113  and  _116
REMARK   51  A    between atoms: _116  and  _117
REMARK   52  A    between atoms: _117  and  _118
REMARK   53  A    between atoms: _118  and  _119
REMARK   54  A    between atoms: _119  and  _120
REMARK   55  A    between atoms: _124  and  _126
REMARK   56  A    between atoms: _126  and  _127
REMARK   57  A    between atoms: _130  and  _132
REMARK   58  A    between atoms: _132  and  _133
REMARK   59  A    between atoms: _132  and  _135
REMARK   60  A    between atoms: _138  and  _140
REMARK   61  A    between atoms: _140  and  _141
REMARK   62  A    between atoms: _140  and  _143
REMARK   63  A    between atoms: _146  and  _148
REMARK   64  A    between atoms: _148  and  _149
REMARK   65  A    between atoms: _152  and  _154
REMARK   66  A    between atoms: _154  and  _155
REMARK   67  A    between atoms: _154  and  _157
REMARK   68  A    between atoms: _157  and  _158
REMARK   69  A    between atoms: _161  and  _163
REMARK   70  A    between atoms: _163  and  _164
REMARK   71  A    between atoms: _163  and  _166
REMARK   72  A    between atoms: _166  and  _167
REMARK   73  A    between atoms: _167  and  _168
REMARK   74  A    between atoms: _168  and  _169
REMARK   75  A    between atoms: _169  and  _170
REMARK   76  A    between atoms: _174  and  _176
REMARK   77  A    between atoms: _176  and  _177
REMARK   78  A    between atoms: _176  and  _179
REMARK   79  A    between atoms: _179  and  _180
REMARK   80  A    between atoms: _180  and  _181
REMARK   81  A    between atoms: _181  and  _182
REMARK   82  A    between atoms: _182  and  _183
REMARK   83  A    between atoms: _187  and  _189
REMARK   84  A    between atoms: _189  and  _190
REMARK   85  A    between atoms: _189  and  _192
REMARK   86  A    between atoms: _192  and  _193
REMARK   87  A    between atoms: _193  and  _194
REMARK   88  A    between atoms: _197  and  _199
REMARK   89  A    between atoms: _199  and  _200
REMARK   90  A    between atoms: _199  and  _202
REMARK   91  A    between atoms: _202  and  _203
REMARK   92  A    between atoms: _206  and  _208
REMARK   93  A    between atoms: _208  and  _209
REMARK   94  A    between atoms: _208  and  _211
REMARK   95  A    between atoms: _211  and  _212
REMARK   96  A    between atoms: _215  and  _217
REMARK   97  A    between atoms: _217  and  _218
REMARK   98  A    between atoms: _217  and  _220
REMARK   99  A    between atoms: _223  and  _225
REMARK  100  A    between atoms: _225  and  _226
REMARK  101  A    between atoms: _225  and  _228
REMARK  102  A    between atoms: _228  and  _229
REMARK  103  A    between atoms: _229  and  _230
REMARK  104  A    between atoms: _230  and  _231
REMARK  105  A    between atoms: _231  and  _232
REMARK  106  A    between atoms: _236  and  _238
REMARK  107  A    between atoms: _238  and  _239
REMARK  108  A    between atoms: _238  and  _241
REMARK  109  A    between atoms: _241  and  _242
REMARK  110  A    between atoms: _245  and  _247
REMARK  111  A    between atoms: _247  and  _248
REMARK  112  A    between atoms: _247  and  _250
REMARK  113  A    between atoms: _250  and  _251
REMARK  114  A    between atoms: _254  and  _256
REMARK  115  A    between atoms: _256  and  _257
REMARK  116  A    between atoms: _256  and  _259
REMARK  117  A    between atoms: _259  and  _260
REMARK  118  A    between atoms: _263  and  _265
REMARK  119  A    between atoms: _265  and  _266
REMARK  120  A    between atoms: _265  and  _268
REMARK  121  A    between atoms: _271  and  _273
REMARK  122  A    between atoms: _273  and  _274
REMARK  123  A    between atoms: _273  and  _276
REMARK  124  A    between atoms: _276  and  _277
REMARK  125  A    between atoms: _283  and  _285
REMARK  126  A    between atoms: _285  and  _286
REMARK  127  A    between atoms: _285  and  _288
REMARK  128  A    between atoms: _288  and  _289
REMARK  129  A    between atoms: _289  and  _290
REMARK  130  A    between atoms: _293  and  _295
REMARK  131  A    between atoms: _295  and  _296
REMARK  132  A    between atoms: _295  and  _298
REMARK  133  A    between atoms: _298  and  _299
REMARK  134  A    between atoms: _305  and  _307
REMARK  135  A    between atoms: _307  and  _308
REMARK  136  A    between atoms: _307  and  _310
REMARK  137  A    between atoms: _310  and  _311
REMARK  138  A    between atoms: _314  and  _316
REMARK  139  A    between atoms: _316  and  _317
REMARK  140  A    between atoms: _316  and  _319
REMARK  141  A    between atoms: _319  and  _320
REMARK  142  A    between atoms: _325  and  _327
REMARK  143  A    between atoms: _327  and  _328
REMARK  144  A    between atoms: _327  and  _330
REMARK  145  A    between atoms: _330  and  _331
REMARK  146  A    between atoms: _331  and  _332
REMARK  147  A    between atoms: _337  and  _339
REMARK  148  A    between atoms: _339  and  _340
REMARK  149  A    between atoms: _339  and  _342
REMARK  150  A    between atoms: _342  and  _343
REMARK  151  A    between atoms: _346  and  _348
REMARK  152  A    between atoms: _348  and  _349
REMARK  153  A    between atoms: _348  and  _351
REMARK  154  A    between atoms: _351  and  _352
REMARK  155  A    between atoms: _355  and  _357
REMARK  156  A    between atoms: _357  and  _358
REMARK  157  A    between atoms: _357  and  _360
REMARK  158  A    between atoms: _360  and  _361
REMARK  159  A    between atoms: _361  and  _362
REMARK  160  A    between atoms: _362  and  _363
REMARK  161  A    between atoms: _363  and  _364
REMARK  162  A    between atoms: _368  and  _370
REMARK  163  A    between atoms: _370  and  _371
REMARK  164  A    between atoms: _370  and  _373
REMARK  165  A    between atoms: _373  and  _374
REMARK  166  A    between atoms: _374  and  _375
REMARK  167  A    between atoms: _375  and  _376
REMARK  168  A    between atoms: _376  and  _377
REMARK  169  A    between atoms: _381  and  _383
REMARK  170  A    between atoms: _383  and  _384
REMARK  171  A    between atoms: _383  and  _386
REMARK  172  A    between atoms: _386  and  _387
REMARK  173  A    between atoms: _390  and  _392
REMARK  174  A    between atoms: _392  and  _393
REMARK  175  A    between atoms: _392  and  _395
REMARK  176  A    between atoms: _395  and  _396
REMARK  177  A    between atoms: _396  and  _397
REMARK  178  A    between atoms: _397  and  _398
REMARK  179  A    between atoms: _398  and  _399
REMARK  180  A    between atoms: _404  and  _405
REMARK  181  A    between atoms: _410  and  _412
REMARK  182  A    between atoms: _412  and  _413
REMARK  183  A    between atoms: _412  and  _415
REMARK  184  A    between atoms: _415  and  _416
REMARK  185  A    between atoms: _416  and  _417
REMARK  186  A    between atoms: _422  and  _424
REMARK  187  A    between atoms: _424  and  _425
REMARK  188  A    between atoms: _424  and  _427
REMARK  189  A    between atoms: _427  and  _428
REMARK  190  A    between atoms: _433  and  _435
REMARK  191  A    between atoms: _435  and  _436
REMARK  192  A    between atoms: _435  and  _438
REMARK  193  A    between atoms: _438  and  _439
REMARK  194  A    between atoms: _442  and  _444
REMARK  195  A    between atoms: _444  and  _445
REMARK  196  A    between atoms: _444  and  _447
REMARK  197  A    between atoms: _447  and  _448
REMARK  198  A    between atoms: _451  and  _453
REMARK  199  A    between atoms: _453  and  _454
REMARK  200  A    between atoms: _453  and  _456
REMARK  201  A    between atoms: _456  and  _457
REMARK  202  A    between atoms: _460  and  _462
REMARK  203  A    between atoms: _462  and  _463
REMARK  204  A    between atoms: _462  and  _465
REMARK  205  A    between atoms: _465  and  _466
REMARK  206  A    between atoms: _469  and  _471
REMARK  207  A    between atoms: _471  and  _472
REMARK  208  A    between atoms: _475  and  _477
REMARK  209  A    between atoms: _477  and  _478
REMARK  210  A    between atoms: _477  and  _480
REMARK  211  A    between atoms: _480  and  _481
REMARK  212  A    between atoms: _484  and  _486
REMARK  213  A    between atoms: _486  and  _487
REMARK  214  A    between atoms: _486  and  _489
REMARK  215  A    between atoms: _489  and  _490
REMARK  216  A    between atoms: _496  and  _498
REMARK  217  A    between atoms: _498  and  _499
REMARK                            x       y       z     vdW  Elec       q    Type
REMARK                         _______ _______ _______ _____ _____    ______ ____
ROOT
ATOM      1  CA  LEU A   4       9.150  15.016  27.065  0.00  0.00    +0.149 C 
ENDROOT
BRANCH   1   3
ATOM      2  C   ALA A   3      10.157  17.212  26.878  0.00  0.00    +0.241 C 
ATOM      3  N   LEU A   4       9.208  16.435  27.382  0.00  0.00    -0.297 N 
ATOM      4  H   LEU A   4       8.493  16.847  28.015  0.00  0.00    +0.150 HD
ATOM      5  O   ALA A   3      11.044  16.784  26.139  0.00  0.00    -0.273 OA
BRANCH   2   6
ATOM      6  CA  ALA A   3      10.117  18.683  27.274  0.00  0.00    +0.149 C 
ATOM      7  CB  ALA A   3       9.698  19.538  26.091  0.00  0.00    +0.031 C 
BRANCH   6  10
ATOM      8  C   VAL A   2      11.684  19.346  29.017  0.00  0.00    +0.241 C 
ATOM      9  O   VAL A   2      10.797  19.494  29.856  0.00  0.00    -0.273 OA
ATOM     10  N   ALA A   3      11.441  19.069  27.741  0.00  0.00    -0.297 N 
ATOM     11  H   ALA A   3      12.220  19.130  27.055  0.00  0.00    +0.150 HD
BRANCH   8  12
ATOM     12  CA  VAL A   2      13.151  19.486  29.395  0.00  0.00    +0.148 C 
BRANCH  12  14
ATOM     13  C   VAL A   1      14.159  21.112  30.891  0.00  0.00    +0.238 C 
ATOM     14  N   VAL A   2      13.330  20.089  30.711  0.00  0.00    -0.297 N 
ATOM     15  H   VAL A   2      12.800  19.712  31.522  0.00  0.00    +0.150 HD
ATOM     16  O   VAL A   1      14.762  21.653  29.963  0.00  0.00    -0.274 OA
BRANCH  13  17
ATOM     17  CA  VAL A   1      14.342  21.599  32.325  0.00  0.00    +0.145 C 
BRANCH  17  18
ATOM     18  CB  VAL A   1      13.662  22.966  32.476  0.00  0.00    +0.025 C 
ATOM     19  CG2 VAL A   1      13.786  23.462  33.903  0.00  0.00    +0.002 C 
ATOM     20  CG1 VAL A   1      12.201  22.880  32.065  0.00  0.00    +0.002 C 
ENDBRANCH  17  18
BRANCH  17  21
ATOM     21  N   VAL A   1      15.764  21.673  32.634  0.00  0.00    -0.238 NA
ATOM     22  H   VAL A   1      16.291  22.530  32.373  0.00  0.00    +0.142 HD
ENDBRANCH  17  21
ENDBRANCH  13  17
ENDBRANCH  12  14
BRANCH  12  23
ATOM     23  CB  VAL A   2      13.794  18.088  29.333  0.00  0.00    +0.027 C 
ATOM     24  CG2 VAL A   2      13.087  17.138  30.294  0.00  0.00    +0.002 C 
ATOM     25  CG1 VAL A   2      15.269  18.171  29.657  0.00  0.00    +0.002 C 
ENDBRANCH  12  23
ENDBRANCH   8  12
ENDBRANCH   6  10
ENDBRANCH   2   6
ENDBRANCH   1   3
BRANCH   1  26
ATOM     26  C   LEU A   4       8.020  14.728  26.091  0.00  0.00    +0.241 C 
ATOM     27  O   LEU A   4       6.875  15.112  26.324  0.00  0.00    -0.273 OA
ATOM     28  N   LYS A   5       8.348  14.052  24.997  0.00  0.00    -0.297 N 
ATOM     29  H   LYS A   5       9.349  13.835  24.814  0.00  0.00    +0.150 HD
BRANCH  28  30
ATOM     30  CA  LYS A   5       7.339  13.608  24.049  0.00  0.00    +0.149 C 
BRANCH  30  31
ATOM     31  C   LYS A   5       7.172  12.105  24.210  0.00  0.00    +0.241 C 
ATOM     32  N   LYS A   6       6.027  11.691  24.744  0.00  0.00    -0.298 N 
ATOM     33  H   LYS A   6       5.307  12.393  25.011  0.00  0.00    +0.150 HD
ATOM     34  O   LYS A   5       8.073  11.335  23.875  0.00  0.00    -0.273 OA
BRANCH  32  35
ATOM     35  CA  LYS A   6       5.758  10.276  24.963  0.00  0.00    +0.137 C 
BRANCH  35  36
ATOM     36  C   LYS A   6       5.029   9.654  23.780  0.00  0.00    +0.227 C 
ATOM     37  O   LYS A   6       3.951  10.106  23.397  0.00  0.00    -0.286 OA
ENDBRANCH  35  36
BRANCH  35  38
ATOM     38  CB  LYS A   6       4.934  10.065  26.236  0.00  0.00    +0.028 C 
BRANCH  38  39
ATOM     39  CG  LYS A   6       4.475   8.626  26.420  0.00  0.00    -0.000 C 
BRANCH  39  40
ATOM     40  CD  LYS A   6       3.387   8.488  27.478  0.00  0.00    -0.024 C 
BRANCH  40  41
ATOM     41  CE  LYS A   6       3.946   8.625  28.883  0.00  0.00    -0.086 C 
BRANCH  41  42
ATOM     42  NZ  LYS A   6       2.956   8.219  29.924  0.00  0.00    +0.380 N 
ATOM     43  HZ1 LYS A   6       3.381   8.329  30.867  0.00  0.00    -0.089 HD
ATOM     44  HZ2 LYS A   6       2.111   8.821  29.851  0.00  0.00    -0.089 HD
ATOM     45  HZ3 LYS A   6       2.688   7.225  29.777  0.00  0.00    -0.089 HD
ENDBRANCH  41  42
ENDBRANCH  40  41
ENDBRANCH  39  40
ENDBRANCH  38  39
ENDBRANCH  35  38
ENDBRANCH  32  35
ENDBRANCH  30  31
BRANCH  30  46
ATOM     46  CB  LYS A   5       7.763  13.950  22.620  0.00  0.00    +0.029 C 
BRANCH  46  47
ATOM     47  CG  LYS A   5       6.621  14.044  21.619  0.00  0.00    +0.000 C 
BRANCH  47  48
ATOM     48  CD  LYS A   5       7.148  14.394  20.233  0.00  0.00    -0.024 C 
BRANCH  48  49
ATOM     49  CE  LYS A   5       6.053  14.949  19.338  0.00  0.00    -0.086 C 
BRANCH  49  50
ATOM     50  NZ  LYS A   5       6.577  15.366  18.008  0.00  0.00    +0.380 N 
ATOM     51  HZ1 LYS A   5       7.297  16.105  18.137  0.00  0.00    -0.089 HD
ATOM     52  HZ2 LYS A   5       7.002  14.545  17.531  0.00  0.00    -0.089 HD
ATOM     53  HZ3 LYS A   5       5.796  15.738  17.430  0.00  0.00    -0.089 HD
ENDBRANCH  49  50
ENDBRANCH  48  49
ENDBRANCH  47  48
ENDBRANCH  46  47
ENDBRANCH  30  46
ENDBRANCH  28  30
ENDBRANCH   1  26
BRANCH   1  54
ATOM     54  CB  LEU A   4       8.950  14.187  28.334  0.00  0.00    +0.029 C 
BRANCH  54  55
ATOM     55  CG  LEU A   4       9.995  14.324  29.437  0.00  0.00    +0.002 C 
ATOM     56  CD2 LEU A   4       9.605  13.464  30.635  0.00  0.00    +0.000 C 
ATOM     57  CD1 LEU A   4      11.382  13.956  28.922  0.00  0.00    +0.000 C 
ENDBRANCH  54  55
ENDBRANCH   1  54
TORSDOF 26
REMARK  Name = ../refined-set-2016/4bcp/4bcp_pocket.pdb
REMARK  217 active torsions:
REMARK  status: ('A' for Active; 'I' for Inactive)
REMARK    1  A    between atoms: _1  and  _3
REMARK    2  A    between atoms: _3  and  _4
REMARK    3  A    between atoms: _3  and  _6
REMARK    4  A    between atoms: _6  and  _7
REMARK    5  A    between atoms: _7  and  _8
REMARK    6  A    between atoms: _11  and  _13
REMARK    7  A    between atoms: _13  and  _14
REMARK    8  A    between atoms: _13  and  _16
REMARK    9  A    between atoms: _16  and  _17
REMARK   10  A    between atoms: _17  and  _18
REMARK   11  A    between atoms: _18  and  _19
REMARK   12  A    between atoms: _19  and  _20
REMARK   13  A    between atoms: _24  and  _26
REMARK   14  A    between atoms: _26  and  _27
REMARK   15  A    between atoms: _26  and  _29
REMARK   16  A    between atoms: _29  and  _30
REMARK   17  A    between atoms: _33  and  _35
REMARK   18  A    between atoms: _35  and  _36
REMARK   19  A    between atoms: _38  and  _40
REMARK   20  A    between atoms: _40  and  _41
REMARK   21  A    between atoms: _40  and  _43
REMARK   22  A    between atoms: _43  and  _44
REMARK   23  A    between atoms: _44  and  _45
REMARK   24  A    between atoms: _48  and  _50
REMARK   25  A    between atoms: _50  and  _51
REMARK   26  A    between atoms: _53  and  _55
REMARK   27  A    between atoms: _55  and  _56
REMARK   28  A    between atoms: _55  and  _58
REMARK   29  A    between atoms: _58  and  _59
REMARK   30  A    between atoms: _62  and  _64
REMARK   31  A    between atoms: _64  and  _65
REMARK   32  A    between atoms: _64  and  _67
REMARK   33  A    between atoms: _67  and  _68
REMARK   34  A    between atoms: _73  and  _74
REMARK   35  A    between atoms: _76  and  _78
REMARK   36  A    between atoms: _78  and  _79
REMARK   37  A    between atoms: _81  and  _83
REMARK   38  A    between atoms: _83  and  _84
REMARK   39  A    between atoms: _83  and  _86
REMARK   40  A    between atoms: _89  and  _91
REMARK   41  A    between atoms: _91  and  _92
REMARK   42  A    between atoms: _91  and  _94
REMARK   43  A    between atoms: _97  and  _99
REMARK   44  A    between atoms: _99  and  _100
REMARK   45  A    between atoms: _99  and  _102
REMARK   46  A    between atoms: _102  and  _103
REMARK   47  A    between atoms: _108  and  _109
REMARK   48  A    between atoms: _111  and  _113
REMARK   49  A    between atoms: _113  and  _114
REMARK   50  A    between atoms: _113  and  _116
REMARK   51  A    between atoms: _116  and  _117
REMARK   52  A    between atoms: _117  and  _118
REMARK   53  A    between atoms: _118  and  _119
REMARK   54  A    between atoms: _119  and  _120
REMARK   55  A    between atoms: _124  and  _126
REMARK   56  A    between atoms: _126  and  _127
REMARK   57  A    between atoms: _130  and  _132
REMARK   58  A    between atoms: _132  and  _133
REMARK   59  A    between atoms: _132  and  _135
REMARK   60  A    between atoms: _138  and  _140
REMARK   61  A    between atoms: _140  and  _141
REMARK   62  A    between atoms: _140  and  _143
REMARK   63  A    between atoms: _146  and  _148
REMARK   64  A    between atoms: _148  and  _149
REMARK   65  A    between atoms: _152  and  _154
REMARK   66  A    between atoms: _154  and  _155
REMARK   67  A    between atoms: _154  and  _157
REMARK   68  A    between atoms: _157  and  _158
REMARK   69  A    between atoms: _161  and  _163
REMARK   70  A    between atoms: _163  and  _164
REMARK   71  A    between atoms: _163  and  _166
REMARK   72  A    between atoms: _166  and  _167
REMARK   73  A    between atoms: _167  and  _168
REMARK   74  A    between atoms: _168  and  _169
REMARK   75  A    between atoms: _169  and  _170
REMARK   76  A    between atoms: _174  and  _176
REMARK   77  A    between atoms: _176  and  _177
REMARK   78  A    between atoms: _176  and  _179
REMARK   79  A    between atoms: _179  and  _180
REMARK   80  A    between atoms: _180  and  _181
REMARK   81  A    between atoms: _181  and  _182
REMARK   82  A    between atoms: _182  and  _183
REMARK   83  A    between atoms: _187  and  _189
REMARK   84  A    between atoms: _189  and  _190
REMARK   85  A    between atoms: _189  and  _192
REMARK   86  A    between atoms: _192  and  _193
REMARK   87  A    between atoms: _193  and  _194
REMARK   88  A    between atoms: _197  and  _199
REMARK   89  A    between atoms: _199  and  _200
REMARK   90  A    between atoms: _199  and  _202
REMARK   91  A    between atoms: _202  and  _203
REMARK   92  A    between atoms: _206  and  _208
REMARK   93  A    between atoms: _208  and  _209
REMARK   94  A    between atoms: _208  and  _211
REMARK   95  A    between atoms: _211  and  _212
REMARK   96  A    between atoms: _215  and  _217
REMARK   97  A    between atoms: _217  and  _218
REMARK   98  A    between atoms: _217  and  _220
REMARK   99  A    between atoms: _223  and  _225
REMARK  100  A    between atoms: _225  and  _226
REMARK  101  A    between atoms: _225  and  _228
REMARK  102  A    between atoms: _228  and  _229
REMARK  103  A    between atoms: _229  and  _230
REMARK  104  A    between atoms: _230  and  _231
REMARK  105  A    between atoms: _231  and  _232
REMARK  106  A    between atoms: _236  and  _238
REMARK  107  A    between atoms: _238  and  _239
REMARK  108  A    between atoms: _238  and  _241
REMARK  109  A    between atoms: _241  and  _242
REMARK  110  A    between atoms: _245  and  _247
REMARK  111  A    between atoms: _247  and  _248
REMARK  112  A    between atoms: _247  and  _250
REMARK  113  A    between atoms: _250  and  _251
REMARK  114  A    between atoms: _254  and  _256
REMARK  115  A    between atoms: _256  and  _257
REMARK  116  A    between atoms: _256  and  _259
REMARK  117  A    between atoms: _259  and  _260
REMARK  118  A    between atoms: _263  and  _265
REMARK  119  A    between atoms: _265  and  _266
REMARK  120  A    between atoms: _265  and  _268
REMARK  121  A    between atoms: _271  and  _273
REMARK  122  A    between atoms: _273  and  _274
REMARK  123  A    between atoms: _273  and  _276
REMARK  124  A    between atoms: _276  and  _277
REMARK  125  A    between atoms: _283  and  _285
REMARK  126  A    between atoms: _285  and  _286
REMARK  127  A    between atoms: _285  and  _288
REMARK  128  A    between atoms: _288  and  _289
REMARK  129  A    between atoms: _289  and  _290
REMARK  130  A    between atoms: _293  and  _295
REMARK  131  A    between atoms: _295  and  _296
REMARK  132  A    between atoms: _295  and  _298
REMARK  133  A    between atoms: _298  and  _299
REMARK  134  A    between atoms: _305  and  _307
REMARK  135  A    between atoms: _307  and  _308
REMARK  136  A    between atoms: _307  and  _310
REMARK  137  A    between atoms: _310  and  _311
REMARK  138  A    between atoms: _314  and  _316
REMARK  139  A    between atoms: _316  and  _317
REMARK  140  A    between atoms: _316  and  _319
REMARK  141  A    between atoms: _319  and  _320
REMARK  142  A    between atoms: _325  and  _327
REMARK  143  A    between atoms: _327  and  _328
REMARK  144  A    between atoms: _327  and  _330
REMARK  145  A    between atoms: _330  and  _331
REMARK  146  A    between atoms: _331  and  _332
REMARK  147  A    between atoms: _337  and  _339
REMARK  148  A    between atoms: _339  and  _340
REMARK  149  A    between atoms: _339  and  _342
REMARK  150  A    between atoms: _342  and  _343
REMARK  151  A    between atoms: _346  and  _348
REMARK  152  A    between atoms: _348  and  _349
REMARK  153  A    between atoms: _348  and  _351
REMARK  154  A    between atoms: _351  and  _352
REMARK  155  A    between atoms: _355  and  _357
REMARK  156  A    between atoms: _357  and  _358
REMARK  157  A    between atoms: _357  and  _360
REMARK  158  A    between atoms: _360  and  _361
REMARK  159  A    between atoms: _361  and  _362
REMARK  160  A    between atoms: _362  and  _363
REMARK  161  A    between atoms: _363  and  _364
REMARK  162  A    between atoms: _368  and  _370
REMARK  163  A    between atoms: _370  and  _371
REMARK  164  A    between atoms: _370  and  _373
REMARK  165  A    between atoms: _373  and  _374
REMARK  166  A    between atoms: _374  and  _375
REMARK  167  A    between atoms: _375  and  _376
REMARK  168  A    between atoms: _376  and  _377
REMARK  169  A    between atoms: _381  and  _383
REMARK  170  A    between atoms: _383  and  _384
REMARK  171  A    between atoms: _383  and  _386
REMARK  172  A    between atoms: _386  and  _387
REMARK  173  A    between atoms: _390  and  _392
REMARK  174  A    between atoms: _392  and  _393
REMARK  175  A    between atoms: _392  and  _395
REMARK  176  A    between atoms: _395  and  _396
REMARK  177  A    between atoms: _396  and  _397
REMARK  178  A    between atoms: _397  and  _398
REMARK  179  A    between atoms: _398  and  _399
REMARK  180  A    between atoms: _404  and  _405
REMARK  181  A    between atoms: _410  and  _412
REMARK  182  A    between atoms: _412  and  _413
REMARK  183  A    between atoms: _412  and  _415
REMARK  184  A    between atoms: _415  and  _416
REMARK  185  A    between atoms: _416  and  _417
REMARK  186  A    between atoms: _422  and  _424
REMARK  187  A    between atoms: _424  and  _425
REMARK  188  A    between atoms: _424  and  _427
REMARK  189  A    between atoms: _427  and  _428
REMARK  190  A    between atoms: _433  and  _435
REMARK  191  A    between atoms: _435  and  _436
REMARK  192  A    between atoms: _435  and  _438
REMARK  193  A    between atoms: _438  and  _439
REMARK  194  A    between atoms: _442  and  _444
REMARK  195  A    between atoms: _444  and  _445
REMARK  196  A    between atoms: _444  and  _447
REMARK  197  A    between atoms: _447  and  _448
REMARK  198  A    between atoms: _451  and  _453
REMARK  199  A    between atoms: _453  and  _454
REMARK  200  A    between atoms: _453  and  _456
REMARK  201  A    between atoms: _456  and  _457
REMARK  202  A    between atoms: _460  and  _462
REMARK  203  A    between atoms: _462  and  _463
REMARK  204  A    between atoms: _462  and  _465
REMARK  205  A    between atoms: _465  and  _466
REMARK  206  A    between atoms: _469  and  _471
REMARK  207  A    between atoms: _471  and  _472
REMARK  208  A    between atoms: _475  and  _477
REMARK  209  A    between atoms: _477  and  _478
REMARK  210  A    between atoms: _477  and  _480
REMARK  211  A    between atoms: _480  and  _481
REMARK  212  A    between atoms: _484  and  _486
REMARK  213  A    between atoms: _486  and  _487
REMARK  214  A    between atoms: _486  and  _489
REMARK  215  A    between atoms: _489  and  _490
REMARK  216  A    between atoms: _496  and  _498
REMARK  217  A    between atoms: _498  and  _499
REMARK                            x       y       z     vdW  Elec       q    Type
REMARK                         _______ _______ _______ _____ _____    ______ ____
ROOT
ATOM      1  CA  GLU A   1      11.564  12.917  13.585  0.00  0.00    +0.134 C 
ENDROOT
BRANCH   1   2
ATOM      2  N   GLU A   1      11.249  11.816  12.679  0.00  0.00    -0.239 NA
ATOM      3  H   GLU A   1      10.352  11.301  12.785  0.00  0.00    +0.142 HD
ENDBRANCH   1   2
BRANCH   1   4
ATOM      4  C   GLU A   1      12.886  12.679  14.296  0.00  0.00    +0.224 C 
ATOM      5  O   GLU A   1      13.722  13.573  14.376  0.00  0.00    -0.287 OA
ENDBRANCH   1   4
BRANCH   1   6
ATOM      6  CB  GLU A   1      10.454  13.159  14.616  0.00  0.00    +0.037 C 
BRANCH   6   7
ATOM      7  CG  GLU A   1      10.903  14.069  15.765  0.00  0.00    +0.116 C 
BRANCH   7   8
ATOM      8  CD  GLU A   1       9.768  14.859  16.402  0.00  0.00    +0.365 C 
ATOM      9  OE2 GLU A   1       8.733  14.252  16.753  0.00  0.00    -0.246 OA
ATOM     10  OE1 GLU A   1       9.916  16.096  16.551  0.00  0.00    -0.246 OA
ENDBRANCH   7   8
ENDBRANCH   6   7
ENDBRANCH   1   6
TORSDOF 5
REMARK  Name = ../refined-set-2016/4bcp/4bcp_pocket.pdb
REMARK  217 active torsions:
REMARK  status: ('A' for Active; 'I' for Inactive)
REMARK    1  A    between atoms: _1  and  _3
REMARK    2  A    between atoms: _3  and  _4
REMARK    3  A    between atoms: _3  and  _6
REMARK    4  A    between atoms: _6  and  _7
REMARK    5  A    between atoms: _7  and  _8
REMARK    6  A    between atoms: _11  and  _13
REMARK    7  A    between atoms: _13  and  _14
REMARK    8  A    between atoms: _13  and  _16
REMARK    9  A    between atoms: _16  and  _17
REMARK   10  A    between atoms: _17  and  _18
REMARK   11  A    between atoms: _18  and  _19
REMARK   12  A    between atoms: _19  and  _20
REMARK   13  A    between atoms: _24  and  _26
REMARK   14  A    between atoms: _26  and  _27
REMARK   15  A    between atoms: _26  and  _29
REMARK   16  A    between atoms: _29  and  _30
REMARK   17  A    between atoms: _33  and  _35
REMARK   18  A    between atoms: _35  and  _36
REMARK   19  A    between atoms: _38  and  _40
REMARK   20  A    between atoms: _40  and  _41
REMARK   21  A    between atoms: _40  and  _43
REMARK   22  A    between atoms: _43  and  _44
REMARK   23  A    between atoms: _44  and  _45
REMARK   24  A    between atoms: _48  and  _50
REMARK   25  A    between atoms: _50  and  _51
REMARK   26  A    between atoms: _53  and  _55
REMARK   27  A    between atoms: _55  and  _56
REMARK   28  A    between atoms: _55  and  _58
REMARK   29  A    between atoms: _58  and  _59
REMARK   30  A    between atoms: _62  and  _64
REMARK   31  A    between atoms: _64  and  _65
REMARK   32  A    between atoms: _64  and  _67
REMARK   33  A    between atoms: _67  and  _68
REMARK   34  A    between atoms: _73  and  _74
REMARK   35  A    between atoms: _76  and  _78
REMARK   36  A    between atoms: _78  and  _79
REMARK   37  A    between atoms: _81  and  _83
REMARK   38  A    between atoms: _83  and  _84
REMARK   39  A    between atoms: _83  and  _86
REMARK   40  A    between atoms: _89  and  _91
REMARK   41  A    between atoms: _91  and  _92
REMARK   42  A    between atoms: _91  and  _94
REMARK   43  A    between atoms: _97  and  _99
REMARK   44  A    between atoms: _99  and  _100
REMARK   45  A    between atoms: _99  and  _102
REMARK   46  A    between atoms: _102  and  _103
REMARK   47  A    between atoms: _108  and  _109
REMARK   48  A    between atoms: _111  and  _113
REMARK   49  A    between atoms: _113  and  _114
REMARK   50  A    between atoms: _113  and  _116
REMARK   51  A    between atoms: _116  and  _117
REMARK   52  A    between atoms: _117  and  _118
REMARK   53  A    between atoms: _118  and  _119
REMARK   54  A    between atoms: _119  and  _120
REMARK   55  A    between atoms: _124  and  _126
REMARK   56  A    between atoms: _126  and  _127
REMARK   57  A    between atoms: _130  and  _132
REMARK   58  A    between atoms: _132  and  _133
REMARK   59  A    between atoms: _132  and  _135
REMARK   60  A    between atoms: _138  and  _140
REMARK   61  A    between atoms: _140  and  _141
REMARK   62  A    between atoms: _140  and  _143
REMARK   63  A    between atoms: _146  and  _148
REMARK   64  A    between atoms: _148  and  _149
REMARK   65  A    between atoms: _152  and  _154
REMARK   66  A    between atoms: _154  and  _155
REMARK   67  A    between atoms: _154  and  _157
REMARK   68  A    between atoms: _157  and  _158
REMARK   69  A    between atoms: _161  and  _163
REMARK   70  A    between atoms: _163  and  _164
REMARK   71  A    between atoms: _163  and  _166
REMARK   72  A    between atoms: _166  and  _167
REMARK   73  A    between atoms: _167  and  _168
REMARK   74  A    between atoms: _168  and  _169
REMARK   75  A    between atoms: _169  and  _170
REMARK   76  A    between atoms: _174  and  _176
REMARK   77  A    between atoms: _176  and  _177
REMARK   78  A    between atoms: _176  and  _179
REMARK   79  A    between atoms: _179  and  _180
REMARK   80  A    between atoms: _180  and  _181
REMARK   81  A    between atoms: _181  and  _182
REMARK   82  A    between atoms: _182  and  _183
REMARK   83  A    between atoms: _187  and  _189
REMARK   84  A    between atoms: _189  and  _190
REMARK   85  A    between atoms: _189  and  _192
REMARK   86  A    between atoms: _192  and  _193
REMARK   87  A    between atoms: _193  and  _194
REMARK   88  A    between atoms: _197  and  _199
REMARK   89  A    between atoms: _199  and  _200
REMARK   90  A    between atoms: _199  and  _202
REMARK   91  A    between atoms: _202  and  _203
REMARK   92  A    between atoms: _206  and  _208
REMARK   93  A    between atoms: _208  and  _209
REMARK   94  A    between atoms: _208  and  _211
REMARK   95  A    between atoms: _211  and  _212
REMARK   96  A    between atoms: _215  and  _217
REMARK   97  A    between atoms: _217  and  _218
REMARK   98  A    between atoms: _217  and  _220
REMARK   99  A    between atoms: _223  and  _225
REMARK  100  A    between atoms: _225  and  _226
REMARK  101  A    between atoms: _225  and  _228
REMARK  102  A    between atoms: _228  and  _229
REMARK  103  A    between atoms: _229  and  _230
REMARK  104  A    between atoms: _230  and  _231
REMARK  105  A    between atoms: _231  and  _232
REMARK  106  A    between atoms: _236  and  _238
REMARK  107  A    between atoms: _238  and  _239
REMARK  108  A    between atoms: _238  and  _241
REMARK  109  A    between atoms: _241  and  _242
REMARK  110  A    between atoms: _245  and  _247
REMARK  111  A    between atoms: _247  and  _248
REMARK  112  A    between atoms: _247  and  _250
REMARK  113  A    between atoms: _250  and  _251
REMARK  114  A    between atoms: _254  and  _256
REMARK  115  A    between atoms: _256  and  _257
REMARK  116  A    between atoms: _256  and  _259
REMARK  117  A    between atoms: _259  and  _260
REMARK  118  A    between atoms: _263  and  _265
REMARK  119  A    between atoms: _265  and  _266
REMARK  120  A    between atoms: _265  and  _268
REMARK  121  A    between atoms: _271  and  _273
REMARK  122  A    between atoms: _273  and  _274
REMARK  123  A    between atoms: _273  and  _276
REMARK  124  A    between atoms: _276  and  _277
REMARK  125  A    between atoms: _283  and  _285
REMARK  126  A    between atoms: _285  and  _286
REMARK  127  A    between atoms: _285  and  _288
REMARK  128  A    between atoms: _288  and  _289
REMARK  129  A    between atoms: _289  and  _290
REMARK  130  A    between atoms: _293  and  _295
REMARK  131  A    between atoms: _295  and  _296
REMARK  132  A    between atoms: _295  and  _298
REMARK  133  A    between atoms: _298  and  _299
REMARK  134  A    between atoms: _305  and  _307
REMARK  135  A    between atoms: _307  and  _308
REMARK  136  A    between atoms: _307  and  _310
REMARK  137  A    between atoms: _310  and  _311
REMARK  138  A    between atoms: _314  and  _316
REMARK  139  A    between atoms: _316  and  _317
REMARK  140  A    between atoms: _316  and  _319
REMARK  141  A    between atoms: _319  and  _320
REMARK  142  A    between atoms: _325  and  _327
REMARK  143  A    between atoms: _327  and  _328
REMARK  144  A    between atoms: _327  and  _330
REMARK  145  A    between atoms: _330  and  _331
REMARK  146  A    between atoms: _331  and  _332
REMARK  147  A    between atoms: _337  and  _339
REMARK  148  A    between atoms: _339  and  _340
REMARK  149  A    between atoms: _339  and  _342
REMARK  150  A    between atoms: _342  and  _343
REMARK  151  A    between atoms: _346  and  _348
REMARK  152  A    between atoms: _348  and  _349
REMARK  153  A    between atoms: _348  and  _351
REMARK  154  A    between atoms: _351  and  _352
REMARK  155  A    between atoms: _355  and  _357
REMARK  156  A    between atoms: _357  and  _358
REMARK  157  A    between atoms: _357  and  _360
REMARK  158  A    between atoms: _360  and  _361
REMARK  159  A    between atoms: _361  and  _362
REMARK  160  A    between atoms: _362  and  _363
REMARK  161  A    between atoms: _363  and  _364
REMARK  162  A    between atoms: _368  and  _370
REMARK  163  A    between atoms: _370  and  _371
REMARK  164  A    between atoms: _370  and  _373
REMARK  165  A    between atoms: _373  and  _374
REMARK  166  A    between atoms: _374  and  _375
REMARK  167  A    between atoms: _375  and  _376
REMARK  168  A    between atoms: _376  and  _377
REMARK  169  A    between atoms: _381  and  _383
REMARK  170  A    between atoms: _383  and  _384
REMARK  171  A    between atoms: _383  and  _386
REMARK  172  A    between atoms: _386  and  _387
REMARK  173  A    between atoms: _390  and  _392
REMARK  174  A    between atoms: _392  and  _393
REMARK  175  A    between atoms: _392  and  _395
REMARK  176  A    between atoms: _395  and  _396
REMARK  177  A    between atoms: _396  and  _397
REMARK  178  A    between atoms: _397  and  _398
REMARK  179  A    between atoms: _398  and  _399
REMARK  180  A    between atoms: _404  and  _405
REMARK  181  A    between atoms: _410  and  _412
REMARK  182  A    between atoms: _412  and  _413
REMARK  183  A    between atoms: _412  and  _415
REMARK  184  A    between atoms: _415  and  _416
REMARK  185  A    between atoms: _416  and  _417
REMARK  186  A    between atoms: _422  and  _424
REMARK  187  A    between atoms: _424  and  _425
REMARK  188  A    between atoms: _424  and  _427
REMARK  189  A    between atoms: _427  and  _428
REMARK  190  A    between atoms: _433  and  _435
REMARK  191  A    between atoms: _435  and  _436
REMARK  192  A    between atoms: _435  and  _438
REMARK  193  A    between atoms: _438  and  _439
REMARK  194  A    between atoms: _442  and  _444
REMARK  195  A    between atoms: _444  and  _445
REMARK  196  A    between atoms: _444  and  _447
REMARK  197  A    between atoms: _447  and  _448
REMARK  198  A    between atoms: _451  and  _453
REMARK  199  A    between atoms: _453  and  _454
REMARK  200  A    between atoms: _453  and  _456
REMARK  201  A    between atoms: _456  and  _457
REMARK  202  A    between atoms: _460  and  _462
REMARK  203  A    between atoms: _462  and  _463
REMARK  204  A    between atoms: _462  and  _465
REMARK  205  A    between atoms: _465  and  _466
REMARK  206  A    between atoms: _469  and  _471
REMARK  207  A    between atoms: _471  and  _472
REMARK  208  A    between atoms: _475  and  _477
REMARK  209  A    between atoms: _477  and  _478
REMARK  210  A    between atoms: _477  and  _480
REMARK  211  A    between atoms: _480  and  _481
REMARK  212  A    between atoms: _484  and  _486
REMARK  213  A    between atoms: _486  and  _487
REMARK  214  A    between atoms: _486  and  _489
REMARK  215  A    between atoms: _489  and  _490
REMARK  216  A    between atoms: _496  and  _498
REMARK  217  A    between atoms: _498  and  _499
REMARK                            x       y       z     vdW  Elec       q    Type
REMARK                         _______ _______ _______ _____ _____    ______ ____
ROOT
ATOM      1  CA  LEU A   1      16.634  15.662  14.351  0.00  0.00    +0.133 C 
ENDROOT
BRANCH   1   2
ATOM      2  N   LEU A   1      16.301  14.688  13.317  0.00  0.00    -0.239 NA
ATOM      3  H   LEU A   1      15.582  13.962  13.512  0.00  0.00    +0.142 HD
ENDBRANCH   1   2
BRANCH   1   4
ATOM      4  C   LEU A   1      18.017  15.419  14.967  0.00  0.00    +0.224 C 
ATOM      5  O   LEU A   1      18.677  16.360  15.408  0.00  0.00    -0.287 OA
ENDBRANCH   1   4
BRANCH   1   6
ATOM      6  CB  LEU A   1      15.548  15.677  15.426  0.00  0.00    +0.025 C 
BRANCH   6   7
ATOM      7  CG  LEU A   1      14.983  17.029  15.852  0.00  0.00    +0.002 C 
ATOM      8  CD2 LEU A   1      13.581  16.848  16.423  0.00  0.00    +0.000 C 
ATOM      9  CD1 LEU A   1      14.974  18.023  14.701  0.00  0.00    +0.000 C 
ENDBRANCH   6   7
ENDBRANCH   1   6
TORSDOF 4
REMARK  Name = ../refined-set-2016/4bcp/4bcp_pocket.pdb
REMARK  217 active torsions:
REMARK  status: ('A' for Active; 'I' for Inactive)
REMARK    1  A    between atoms: _1  and  _3
REMARK    2  A    between atoms: _3  and  _4
REMARK    3  A    between atoms: _3  and  _6
REMARK    4  A    between atoms: _6  and  _7
REMARK    5  A    between atoms: _7  and  _8
REMARK    6  A    between atoms: _11  and  _13
REMARK    7  A    between atoms: _13  and  _14
REMARK    8  A    between atoms: _13  and  _16
REMARK    9  A    between atoms: _16  and  _17
REMARK   10  A    between atoms: _17  and  _18
REMARK   11  A    between atoms: _18  and  _19
REMARK   12  A    between atoms: _19  and  _20
REMARK   13  A    between atoms: _24  and  _26
REMARK   14  A    between atoms: _26  and  _27
REMARK   15  A    between atoms: _26  and  _29
REMARK   16  A    between atoms: _29  and  _30
REMARK   17  A    between atoms: _33  and  _35
REMARK   18  A    between atoms: _35  and  _36
REMARK   19  A    between atoms: _38  and  _40
REMARK   20  A    between atoms: _40  and  _41
REMARK   21  A    between atoms: _40  and  _43
REMARK   22  A    between atoms: _43  and  _44
REMARK   23  A    between atoms: _44  and  _45
REMARK   24  A    between atoms: _48  and  _50
REMARK   25  A    between atoms: _50  and  _51
REMARK   26  A    between atoms: _53  and  _55
REMARK   27  A    between atoms: _55  and  _56
REMARK   28  A    between atoms: _55  and  _58
REMARK   29  A    between atoms: _58  and  _59
REMARK   30  A    between atoms: _62  and  _64
REMARK   31  A    between atoms: _64  and  _65
REMARK   32  A    between atoms: _64  and  _67
REMARK   33  A    between atoms: _67  and  _68
REMARK   34  A    between atoms: _73  and  _74
REMARK   35  A    between atoms: _76  and  _78
REMARK   36  A    between atoms: _78  and  _79
REMARK   37  A    between atoms: _81  and  _83
REMARK   38  A    between atoms: _83  and  _84
REMARK   39  A    between atoms: _83  and  _86
REMARK   40  A    between atoms: _89  and  _91
REMARK   41  A    between atoms: _91  and  _92
REMARK   42  A    between atoms: _91  and  _94
REMARK   43  A    between atoms: _97  and  _99
REMARK   44  A    between atoms: _99  and  _100
REMARK   45  A    between atoms: _99  and  _102
REMARK   46  A    between atoms: _102  and  _103
REMARK   47  A    between atoms: _108  and  _109
REMARK   48  A    between atoms: _111  and  _113
REMARK   49  A    between atoms: _113  and  _114
REMARK   50  A    between atoms: _113  and  _116
REMARK   51  A    between atoms: _116  and  _117
REMARK   52  A    between atoms: _117  and  _118
REMARK   53  A    between atoms: _118  and  _119
REMARK   54  A    between atoms: _119  and  _120
REMARK   55  A    between atoms: _124  and  _126
REMARK   56  A    between atoms: _126  and  _127
REMARK   57  A    between atoms: _130  and  _132
REMARK   58  A    between atoms: _132  and  _133
REMARK   59  A    between atoms: _132  and  _135
REMARK   60  A    between atoms: _138  and  _140
REMARK   61  A    between atoms: _140  and  _141
REMARK   62  A    between atoms: _140  and  _143
REMARK   63  A    between atoms: _146  and  _148
REMARK   64  A    between atoms: _148  and  _149
REMARK   65  A    between atoms: _152  and  _154
REMARK   66  A    between atoms: _154  and  _155
REMARK   67  A    between atoms: _154  and  _157
REMARK   68  A    between atoms: _157  and  _158
REMARK   69  A    between atoms: _161  and  _163
REMARK   70  A    between atoms: _163  and  _164
REMARK   71  A    between atoms: _163  and  _166
REMARK   72  A    between atoms: _166  and  _167
REMARK   73  A    between atoms: _167  and  _168
REMARK   74  A    between atoms: _168  and  _169
REMARK   75  A    between atoms: _169  and  _170
REMARK   76  A    between atoms: _174  and  _176
REMARK   77  A    between atoms: _176  and  _177
REMARK   78  A    between atoms: _176  and  _179
REMARK   79  A    between atoms: _179  and  _180
REMARK   80  A    between atoms: _180  and  _181
REMARK   81  A    between atoms: _181  and  _182
REMARK   82  A    between atoms: _182  and  _183
REMARK   83  A    between atoms: _187  and  _189
REMARK   84  A    between atoms: _189  and  _190
REMARK   85  A    between atoms: _189  and  _192
REMARK   86  A    between atoms: _192  and  _193
REMARK   87  A    between atoms: _193  and  _194
REMARK   88  A    between atoms: _197  and  _199
REMARK   89  A    between atoms: _199  and  _200
REMARK   90  A    between atoms: _199  and  _202
REMARK   91  A    between atoms: _202  and  _203
REMARK   92  A    between atoms: _206  and  _208
REMARK   93  A    between atoms: _208  and  _209
REMARK   94  A    between atoms: _208  and  _211
REMARK   95  A    between atoms: _211  and  _212
REMARK   96  A    between atoms: _215  and  _217
REMARK   97  A    between atoms: _217  and  _218
REMARK   98  A    between atoms: _217  and  _220
REMARK   99  A    between atoms: _223  and  _225
REMARK  100  A    between atoms: _225  and  _226
REMARK  101  A    between atoms: _225  and  _228
REMARK  102  A    between atoms: _228  and  _229
REMARK  103  A    between atoms: _229  and  _230
REMARK  104  A    between atoms: _230  and  _231
REMARK  105  A    between atoms: _231  and  _232
REMARK  106  A    between atoms: _236  and  _238
REMARK  107  A    between atoms: _238  and  _239
REMARK  108  A    between atoms: _238  and  _241
REMARK  109  A    between atoms: _241  and  _242
REMARK  110  A    between atoms: _245  and  _247
REMARK  111  A    between atoms: _247  and  _248
REMARK  112  A    between atoms: _247  and  _250
REMARK  113  A    between atoms: _250  and  _251
REMARK  114  A    between atoms: _254  and  _256
REMARK  115  A    between atoms: _256  and  _257
REMARK  116  A    between atoms: _256  and  _259
REMARK  117  A    between atoms: _259  and  _260
REMARK  118  A    between atoms: _263  and  _265
REMARK  119  A    between atoms: _265  and  _266
REMARK  120  A    between atoms: _265  and  _268
REMARK  121  A    between atoms: _271  and  _273
REMARK  122  A    between atoms: _273  and  _274
REMARK  123  A    between atoms: _273  and  _276
REMARK  124  A    between atoms: _276  and  _277
REMARK  125  A    between atoms: _283  and  _285
REMARK  126  A    between atoms: _285  and  _286
REMARK  127  A    between atoms: _285  and  _288
REMARK  128  A    between atoms: _288  and  _289
REMARK  129  A    between atoms: _289  and  _290
REMARK  130  A    between atoms: _293  and  _295
REMARK  131  A    between atoms: _295  and  _296
REMARK  132  A    between atoms: _295  and  _298
REMARK  133  A    between atoms: _298  and  _299
REMARK  134  A    between atoms: _305  and  _307
REMARK  135  A    between atoms: _307  and  _308
REMARK  136  A    between atoms: _307  and  _310
REMARK  137  A    between atoms: _310  and  _311
REMARK  138  A    between atoms: _314  and  _316
REMARK  139  A    between atoms: _316  and  _317
REMARK  140  A    between atoms: _316  and  _319
REMARK  141  A    between atoms: _319  and  _320
REMARK  142  A    between atoms: _325  and  _327
REMARK  143  A    between atoms: _327  and  _328
REMARK  144  A    between atoms: _327  and  _330
REMARK  145  A    between atoms: _330  and  _331
REMARK  146  A    between atoms: _331  and  _332
REMARK  147  A    between atoms: _337  and  _339
REMARK  148  A    between atoms: _339  and  _340
REMARK  149  A    between atoms: _339  and  _342
REMARK  150  A    between atoms: _342  and  _343
REMARK  151  A    between atoms: _346  and  _348
REMARK  152  A    between atoms: _348  and  _349
REMARK  153  A    between atoms: _348  and  _351
REMARK  154  A    between atoms: _351  and  _352
REMARK  155  A    between atoms: _355  and  _357
REMARK  156  A    between atoms: _357  and  _358
REMARK  157  A    between atoms: _357  and  _360
REMARK  158  A    between atoms: _360  and  _361
REMARK  159  A    between atoms: _361  and  _362
REMARK  160  A    between atoms: _362  and  _363
REMARK  161  A    between atoms: _363  and  _364
REMARK  162  A    between atoms: _368  and  _370
REMARK  163  A    between atoms: _370  and  _371
REMARK  164  A    between atoms: _370  and  _373
REMARK  165  A    between atoms: _373  and  _374
REMARK  166  A    between atoms: _374  and  _375
REMARK  167  A    between atoms: _375  and  _376
REMARK  168  A    between atoms: _376  and  _377
REMARK  169  A    between atoms: _381  and  _383
REMARK  170  A    between atoms: _383  and  _384
REMARK  171  A    between atoms: _383  and  _386
REMARK  172  A    between atoms: _386  and  _387
REMARK  173  A    between atoms: _390  and  _392
REMARK  174  A    between atoms: _392  and  _393
REMARK  175  A    between atoms: _392  and  _395
REMARK  176  A    between atoms: _395  and  _396
REMARK  177  A    between atoms: _396  and  _397
REMARK  178  A    between atoms: _397  and  _398
REMARK  179  A    between atoms: _398  and  _399
REMARK  180  A    between atoms: _404  and  _405
REMARK  181  A    between atoms: _410  and  _412
REMARK  182  A    between atoms: _412  and  _413
REMARK  183  A    between atoms: _412  and  _415
REMARK  184  A    between atoms: _415  and  _416
REMARK  185  A    between atoms: _416  and  _417
REMARK  186  A    between atoms: _422  and  _424
REMARK  187  A    between atoms: _424  and  _425
REMARK  188  A    between atoms: _424  and  _427
REMARK  189  A    between atoms: _427  and  _428
REMARK  190  A    between atoms: _433  and  _435
REMARK  191  A    between atoms: _435  and  _436
REMARK  192  A    between atoms: _435  and  _438
REMARK  193  A    between atoms: _438  and  _439
REMARK  194  A    between atoms: _442  and  _444
REMARK  195  A    between atoms: _444  and  _445
REMARK  196  A    between atoms: _444  and  _447
REMARK  197  A    between atoms: _447  and  _448
REMARK  198  A    between atoms: _451  and  _453
REMARK  199  A    between atoms: _453  and  _454
REMARK  200  A    between atoms: _453  and  _456
REMARK  201  A    between atoms: _456  and  _457
REMARK  202  A    between atoms: _460  and  _462
REMARK  203  A    between atoms: _462  and  _463
REMARK  204  A    between atoms: _462  and  _465
REMARK  205  A    between atoms: _465  and  _466
REMARK  206  A    between atoms: _469  and  _471
REMARK  207  A    between atoms: _471  and  _472
REMARK  208  A    between atoms: _475  and  _477
REMARK  209  A    between atoms: _477  and  _478
REMARK  210  A    between atoms: _477  and  _480
REMARK  211  A    between atoms: _480  and  _481
REMARK  212  A    between atoms: _484  and  _486
REMARK  213  A    between atoms: _486  and  _487
REMARK  214  A    between atoms: _486  and  _489
REMARK  215  A    between atoms: _489  and  _490
REMARK  216  A    between atoms: _496  and  _498
REMARK  217  A    between atoms: _498  and  _499
REMARK                            x       y       z     vdW  Elec       q    Type
REMARK                         _______ _______ _______ _____ _____    ______ ____
ROOT
ATOM      1  CA  LYS A   3      17.563  20.141  20.236  0.00  0.00    +0.149 C 
ENDROOT
BRANCH   1   3
ATOM      2  C   VAL A   2      15.905  21.329  18.945  0.00  0.00    +0.241 C 
ATOM      3  N   LYS A   3      16.610  21.228  20.064  0.00  0.00    -0.297 N 
ATOM      4  H   LYS A   3      16.481  21.928  20.822  0.00  0.00    +0.150 HD
ATOM      5  O   VAL A   2      15.961  20.488  18.044  0.00  0.00    -0.273 OA
BRANCH   2   6
ATOM      6  CA  VAL A   2      15.008  22.556  18.820  0.00  0.00    +0.148 C 
BRANCH   6   9
ATOM      7  C   ILE A   1      16.354  23.476  17.020  0.00  0.00    +0.238 C 
ATOM      8  O   ILE A   1      17.398  23.251  17.632  0.00  0.00    -0.274 OA
ATOM      9  N   VAL A   2      15.153  23.176  17.507  0.00  0.00    -0.297 N 
ATOM     10  H   VAL A   2      14.305  23.386  16.943  0.00  0.00    +0.150 HD
BRANCH   7  11
ATOM     11  CA  ILE A   1      16.394  24.143  15.652  0.00  0.00    +0.145 C 
BRANCH  11  12
ATOM     12  N   ILE A   1      17.140  25.385  15.774  0.00  0.00    -0.238 NA
ATOM     13  H   ILE A   1      18.084  25.356  16.209  0.00  0.00    +0.142 HD
ENDBRANCH  11  12
BRANCH  11  14
ATOM     14  CB  ILE A   1      17.056  23.186  14.642  0.00  0.00    +0.025 C 
ATOM     15  CG2 ILE A   1      16.396  21.807  14.688  0.00  0.00    +0.002 C 
BRANCH  14  16
ATOM     16  CG1 ILE A   1      16.990  23.772  13.231  0.00  0.00    +0.002 C 
ATOM     17  CD1 ILE A   1      17.629  22.890  12.178  0.00  0.00    +0.000 C 
ENDBRANCH  14  16
ENDBRANCH  11  14
ENDBRANCH   7  11
ENDBRANCH   6   9
BRANCH   6  18
ATOM     18  CB  VAL A   2      13.556  22.154  19.116  0.00  0.00    +0.027 C 
ATOM     19  CG2 VAL A   2      13.414  21.780  20.586  0.00  0.00    +0.002 C 
ATOM     20  CG1 VAL A   2      13.120  20.998  18.210  0.00  0.00    +0.002 C 
ENDBRANCH   6  18
ENDBRANCH   2   6
ENDBRANCH   1   3
BRANCH   1  21
ATOM     21  C   LYS A   3      16.925  18.900  20.851  0.00  0.00    +0.241 C 
ATOM     22  O   LYS A   3      16.282  18.977  21.896  0.00  0.00    -0.273 OA
ATOM     23  N   LEU A   4      17.100  17.766  20.179  0.00  0.00    -0.297 N 
ATOM     24  H   LEU A   4      17.508  17.808  19.223  0.00  0.00    +0.150 HD
BRANCH  23  25
ATOM     25  CA  LEU A   4      16.742  16.469  20.730  0.00  0.00    +0.149 C 
BRANCH  25  26
ATOM     26  C   LEU A   4      17.879  16.001  21.629  0.00  0.00    +0.241 C 
ATOM     27  N   LEU A   5      17.602  15.871  22.921  0.00  0.00    -0.298 N 
ATOM     28  H   LEU A   5      16.626  16.010  23.252  0.00  0.00    +0.150 HD
ATOM     29  O   LEU A   4      18.991  15.764  21.159  0.00  0.00    -0.273 OA
BRANCH  27  30
ATOM     30  CA  LEU A   5      18.644  15.537  23.883  0.00  0.00    +0.137 C 
BRANCH  30  31
ATOM     31  C   LEU A   5      18.873  14.038  23.999  0.00  0.00    +0.227 C 
ATOM     32  O   LEU A   5      20.010  13.586  24.115  0.00  0.00    -0.286 OA
ENDBRANCH  30  31
BRANCH  30  33
ATOM     33  CB  LEU A   5      18.316  16.123  25.258  0.00  0.00    +0.028 C 
BRANCH  33  34
ATOM     34  CG  LEU A   5      18.097  17.637  25.278  0.00  0.00    +0.002 C 
ATOM     35  CD2 LEU A   5      17.709  18.114  26.672  0.00  0.00    +0.000 C 
ATOM     36  CD1 LEU A   5      19.336  18.365  24.779  0.00  0.00    +0.000 C 
ENDBRANCH  33  34
ENDBRANCH  30  33
ENDBRANCH  27  30
ENDBRANCH  25  26
BRANCH  25  37
ATOM     37  CB  LEU A   4      16.516  15.452  19.608  0.00  0.00    +0.029 C 
BRANCH  37  38
ATOM     38  CG  LEU A   4      16.084  14.033  20.004  0.00  0.00    +0.002 C 
ATOM     39  CD2 LEU A   4      14.719  14.039  20.677  0.00  0.00    +0.000 C 
ATOM     40  CD1 LEU A   4      16.070  13.120  18.788  0.00  0.00    +0.000 C 
ENDBRANCH  37  38
ENDBRANCH  25  37
ENDBRANCH  23  25
ENDBRANCH   1  21
BRANCH   1  41
ATOM     41  CB  LYS A   3      18.761  20.590  21.077  0.00  0.00    +0.029 C 
BRANCH  41  42
ATOM     42  CG  LYS A   3      19.863  19.544  21.150  0.00  0.00    +0.000 C 
BRANCH  42  43
ATOM     43  CD  LYS A   3      20.974  19.948  22.110  0.00  0.00    -0.024 C 
BRANCH  43  44
ATOM     44  CE  LYS A   3      21.984  18.818  22.294  0.00  0.00    -0.086 C 
BRANCH  44  45
ATOM     45  NZ  LYS A   3      22.894  19.058  23.454  0.00  0.00    +0.380 N 
ATOM     46  HZ1 LYS A   3      22.331  19.134  24.325  0.00  0.00    -0.089 HD
ATOM     47  HZ2 LYS A   3      23.562  18.265  23.539  0.00  0.00    -0.089 HD
ATOM     48  HZ3 LYS A   3      23.421  19.942  23.303  0.00  0.00    -0.089 HD
ENDBRANCH  44  45
ENDBRANCH  43  44
ENDBRANCH  42  43
ENDBRANCH  41  42
ENDBRANCH   1  41
TORSDOF 22
REMARK  Name = ../refined-set-2016/4bcp/4bcp_pocket.pdb
REMARK  217 active torsions:
REMARK  status: ('A' for Active; 'I' for Inactive)
REMARK    1  A    between atoms: _1  and  _3
REMARK    2  A    between atoms: _3  and  _4
REMARK    3  A    between atoms: _3  and  _6
REMARK    4  A    between atoms: _6  and  _7
REMARK    5  A    between atoms: _7  and  _8
REMARK    6  A    between atoms: _11  and  _13
REMARK    7  A    between atoms: _13  and  _14
REMARK    8  A    between atoms: _13  and  _16
REMARK    9  A    between atoms: _16  and  _17
REMARK   10  A    between atoms: _17  and  _18
REMARK   11  A    between atoms: _18  and  _19
REMARK   12  A    between atoms: _19  and  _20
REMARK   13  A    between atoms: _24  and  _26
REMARK   14  A    between atoms: _26  and  _27
REMARK   15  A    between atoms: _26  and  _29
REMARK   16  A    between atoms: _29  and  _30
REMARK   17  A    between atoms: _33  and  _35
REMARK   18  A    between atoms: _35  and  _36
REMARK   19  A    between atoms: _38  and  _40
REMARK   20  A    between atoms: _40  and  _41
REMARK   21  A    between atoms: _40  and  _43
REMARK   22  A    between atoms: _43  and  _44
REMARK   23  A    between atoms: _44  and  _45
REMARK   24  A    between atoms: _48  and  _50
REMARK   25  A    between atoms: _50  and  _51
REMARK   26  A    between atoms: _53  and  _55
REMARK   27  A    between atoms: _55  and  _56
REMARK   28  A    between atoms: _55  and  _58
REMARK   29  A    between atoms: _58  and  _59
REMARK   30  A    between atoms: _62  and  _64
REMARK   31  A    between atoms: _64  and  _65
REMARK   32  A    between atoms: _64  and  _67
REMARK   33  A    between atoms: _67  and  _68
REMARK   34  A    between atoms: _73  and  _74
REMARK   35  A    between atoms: _76  and  _78
REMARK   36  A    between atoms: _78  and  _79
REMARK   37  A    between atoms: _81  and  _83
REMARK   38  A    between atoms: _83  and  _84
REMARK   39  A    between atoms: _83  and  _86
REMARK   40  A    between atoms: _89  and  _91
REMARK   41  A    between atoms: _91  and  _92
REMARK   42  A    between atoms: _91  and  _94
REMARK   43  A    between atoms: _97  and  _99
REMARK   44  A    between atoms: _99  and  _100
REMARK   45  A    between atoms: _99  and  _102
REMARK   46  A    between atoms: _102  and  _103
REMARK   47  A    between atoms: _108  and  _109
REMARK   48  A    between atoms: _111  and  _113
REMARK   49  A    between atoms: _113  and  _114
REMARK   50  A    between atoms: _113  and  _116
REMARK   51  A    between atoms: _116  and  _117
REMARK   52  A    between atoms: _117  and  _118
REMARK   53  A    between atoms: _118  and  _119
REMARK   54  A    between atoms: _119  and  _120
REMARK   55  A    between atoms: _124  and  _126
REMARK   56  A    between atoms: _126  and  _127
REMARK   57  A    between atoms: _130  and  _132
REMARK   58  A    between atoms: _132  and  _133
REMARK   59  A    between atoms: _132  and  _135
REMARK   60  A    between atoms: _138  and  _140
REMARK   61  A    between atoms: _140  and  _141
REMARK   62  A    between atoms: _140  and  _143
REMARK   63  A    between atoms: _146  and  _148
REMARK   64  A    between atoms: _148  and  _149
REMARK   65  A    between atoms: _152  and  _154
REMARK   66  A    between atoms: _154  and  _155
REMARK   67  A    between atoms: _154  and  _157
REMARK   68  A    between atoms: _157  and  _158
REMARK   69  A    between atoms: _161  and  _163
REMARK   70  A    between atoms: _163  and  _164
REMARK   71  A    between atoms: _163  and  _166
REMARK   72  A    between atoms: _166  and  _167
REMARK   73  A    between atoms: _167  and  _168
REMARK   74  A    between atoms: _168  and  _169
REMARK   75  A    between atoms: _169  and  _170
REMARK   76  A    between atoms: _174  and  _176
REMARK   77  A    between atoms: _176  and  _177
REMARK   78  A    between atoms: _176  and  _179
REMARK   79  A    between atoms: _179  and  _180
REMARK   80  A    between atoms: _180  and  _181
REMARK   81  A    between atoms: _181  and  _182
REMARK   82  A    between atoms: _182  and  _183
REMARK   83  A    between atoms: _187  and  _189
REMARK   84  A    between atoms: _189  and  _190
REMARK   85  A    between atoms: _189  and  _192
REMARK   86  A    between atoms: _192  and  _193
REMARK   87  A    between atoms: _193  and  _194
REMARK   88  A    between atoms: _197  and  _199
REMARK   89  A    between atoms: _199  and  _200
REMARK   90  A    between atoms: _199  and  _202
REMARK   91  A    between atoms: _202  and  _203
REMARK   92  A    between atoms: _206  and  _208
REMARK   93  A    between atoms: _208  and  _209
REMARK   94  A    between atoms: _208  and  _211
REMARK   95  A    between atoms: _211  and  _212
REMARK   96  A    between atoms: _215  and  _217
REMARK   97  A    between atoms: _217  and  _218
REMARK   98  A    between atoms: _217  and  _220
REMARK   99  A    between atoms: _223  and  _225
REMARK  100  A    between atoms: _225  and  _226
REMARK  101  A    between atoms: _225  and  _228
REMARK  102  A    between atoms: _228  and  _229
REMARK  103  A    between atoms: _229  and  _230
REMARK  104  A    between atoms: _230  and  _231
REMARK  105  A    between atoms: _231  and  _232
REMARK  106  A    between atoms: _236  and  _238
REMARK  107  A    between atoms: _238  and  _239
REMARK  108  A    between atoms: _238  and  _241
REMARK  109  A    between atoms: _241  and  _242
REMARK  110  A    between atoms: _245  and  _247
REMARK  111  A    between atoms: _247  and  _248
REMARK  112  A    between atoms: _247  and  _250
REMARK  113  A    between atoms: _250  and  _251
REMARK  114  A    between atoms: _254  and  _256
REMARK  115  A    between atoms: _256  and  _257
REMARK  116  A    between atoms: _256  and  _259
REMARK  117  A    between atoms: _259  and  _260
REMARK  118  A    between atoms: _263  and  _265
REMARK  119  A    between atoms: _265  and  _266
REMARK  120  A    between atoms: _265  and  _268
REMARK  121  A    between atoms: _271  and  _273
REMARK  122  A    between atoms: _273  and  _274
REMARK  123  A    between atoms: _273  and  _276
REMARK  124  A    between atoms: _276  and  _277
REMARK  125  A    between atoms: _283  and  _285
REMARK  126  A    between atoms: _285  and  _286
REMARK  127  A    between atoms: _285  and  _288
REMARK  128  A    between atoms: _288  and  _289
REMARK  129  A    between atoms: _289  and  _290
REMARK  130  A    between atoms: _293  and  _295
REMARK  131  A    between atoms: _295  and  _296
REMARK  132  A    between atoms: _295  and  _298
REMARK  133  A    between atoms: _298  and  _299
REMARK  134  A    between atoms: _305  and  _307
REMARK  135  A    between atoms: _307  and  _308
REMARK  136  A    between atoms: _307  and  _310
REMARK  137  A    between atoms: _310  and  _311
REMARK  138  A    between atoms: _314  and  _316
REMARK  139  A    between atoms: _316  and  _317
REMARK  140  A    between atoms: _316  and  _319
REMARK  141  A    between atoms: _319  and  _320
REMARK  142  A    between atoms: _325  and  _327
REMARK  143  A    between atoms: _327  and  _328
REMARK  144  A    between atoms: _327  and  _330
REMARK  145  A    between atoms: _330  and  _331
REMARK  146  A    between atoms: _331  and  _332
REMARK  147  A    between atoms: _337  and  _339
REMARK  148  A    between atoms: _339  and  _340
REMARK  149  A    between atoms: _339  and  _342
REMARK  150  A    between atoms: _342  and  _343
REMARK  151  A    between atoms: _346  and  _348
REMARK  152  A    between atoms: _348  and  _349
REMARK  153  A    between atoms: _348  and  _351
REMARK  154  A    between atoms: _351  and  _352
REMARK  155  A    between atoms: _355  and  _357
REMARK  156  A    between atoms: _357  and  _358
REMARK  157  A    between atoms: _357  and  _360
REMARK  158  A    between atoms: _360  and  _361
REMARK  159  A    between atoms: _361  and  _362
REMARK  160  A    between atoms: _362  and  _363
REMARK  161  A    between atoms: _363  and  _364
REMARK  162  A    between atoms: _368  and  _370
REMARK  163  A    between atoms: _370  and  _371
REMARK  164  A    between atoms: _370  and  _373
REMARK  165  A    between atoms: _373  and  _374
REMARK  166  A    between atoms: _374  and  _375
REMARK  167  A    between atoms: _375  and  _376
REMARK  168  A    between atoms: _376  and  _377
REMARK  169  A    between atoms: _381  and  _383
REMARK  170  A    between atoms: _383  and  _384
REMARK  171  A    between atoms: _383  and  _386
REMARK  172  A    between atoms: _386  and  _387
REMARK  173  A    between atoms: _390  and  _392
REMARK  174  A    between atoms: _392  and  _393
REMARK  175  A    between atoms: _392  and  _395
REMARK  176  A    between atoms: _395  and  _396
REMARK  177  A    between atoms: _396  and  _397
REMARK  178  A    between atoms: _397  and  _398
REMARK  179  A    between atoms: _398  and  _399
REMARK  180  A    between atoms: _404  and  _405
REMARK  181  A    between atoms: _410  and  _412
REMARK  182  A    between atoms: _412  and  _413
REMARK  183  A    between atoms: _412  and  _415
REMARK  184  A    between atoms: _415  and  _416
REMARK  185  A    between atoms: _416  and  _417
REMARK  186  A    between atoms: _422  and  _424
REMARK  187  A    between atoms: _424  and  _425
REMARK  188  A    between atoms: _424  and  _427
REMARK  189  A    between atoms: _427  and  _428
REMARK  190  A    between atoms: _433  and  _435
REMARK  191  A    between atoms: _435  and  _436
REMARK  192  A    between atoms: _435  and  _438
REMARK  193  A    between atoms: _438  and  _439
REMARK  194  A    between atoms: _442  and  _444
REMARK  195  A    between atoms: _444  and  _445
REMARK  196  A    between atoms: _444  and  _447
REMARK  197  A    between atoms: _447  and  _448
REMARK  198  A    between atoms: _451  and  _453
REMARK  199  A    between atoms: _453  and  _454
REMARK  200  A    between atoms: _453  and  _456
REMARK  201  A    between atoms: _456  and  _457
REMARK  202  A    between atoms: _460  and  _462
REMARK  203  A    between atoms: _462  and  _463
REMARK  204  A    between atoms: _462  and  _465
REMARK  205  A    between atoms: _465  and  _466
REMARK  206  A    between atoms: _469  and  _471
REMARK  207  A    between atoms: _471  and  _472
REMARK  208  A    between atoms: _475  and  _477
REMARK  209  A    between atoms: _477  and  _478
REMARK  210  A    between atoms: _477  and  _480
REMARK  211  A    between atoms: _480  and  _481
REMARK  212  A    between atoms: _484  and  _486
REMARK  213  A    between atoms: _486  and  _487
REMARK  214  A    between atoms: _486  and  _489
REMARK  215  A    between atoms: _489  and  _490
REMARK  216  A    between atoms: _496  and  _498
REMARK  217  A    between atoms: _498  and  _499
REMARK                            x       y       z     vdW  Elec       q    Type
REMARK                         _______ _______ _______ _____ _____    ______ ____
ROOT
ATOM      1  CA  HIS A   7       8.942  28.663  27.288  0.00  0.00    +0.155 C 
ENDROOT
BRANCH   1   2
ATOM      2  C   HIS A   7       7.575  28.837  26.625  0.00  0.00    +0.241 C 
ATOM      3  O   HIS A   7       6.549  28.809  27.302  0.00  0.00    -0.273 OA
ATOM      4  N   GLN A   8       7.550  29.018  25.311  0.00  0.00    -0.297 N 
ATOM      5  H   GLN A   8       8.426  28.933  24.757  0.00  0.00    +0.150 HD
BRANCH   4   6
ATOM      6  CA  GLN A   8       6.296  29.336  24.646  0.00  0.00    +0.149 C 
BRANCH   6   7
ATOM      7  C   GLN A   8       6.383  29.145  23.138  0.00  0.00    +0.241 C 
ATOM      8  O   GLN A   8       7.475  29.059  22.581  0.00  0.00    -0.273 OA
ATOM      9  N   ASP A   9       5.230  29.067  22.482  0.00  0.00    -0.297 N 
ATOM     10  H   ASP A   9       4.339  29.040  23.017  0.00  0.00    +0.150 HD
BRANCH   9  11
ATOM     11  CA  ASP A   9       5.193  29.019  21.024  0.00  0.00    +0.160 C 
BRANCH  11  12
ATOM     12  C   ASP A   9       4.813  30.386  20.465  0.00  0.00    +0.241 C 
ATOM     13  O   ASP A   9       4.263  31.224  21.180  0.00  0.00    -0.273 OA
ATOM     14  N   LEU A  10       5.117  30.609  19.192  0.00  0.00    -0.297 N 
ATOM     15  H   LEU A  10       5.520  29.835  18.625  0.00  0.00    +0.150 HD
BRANCH  14  16
ATOM     16  CA  LEU A  10       4.902  31.909  18.566  0.00  0.00    +0.149 C 
BRANCH  16  17
ATOM     17  C   LEU A  10       3.433  32.325  18.577  0.00  0.00    +0.241 C 
ATOM     18  O   LEU A  10       3.113  33.501  18.758  0.00  0.00    -0.273 OA
ATOM     19  N   LYS A  11       2.541  31.360  18.382  0.00  0.00    -0.297 N 
ATOM     20  H   LYS A  11       2.866  30.378  18.274  0.00  0.00    +0.150 HD
BRANCH  19  21
ATOM     21  CA  LYS A  11       1.112  31.653  18.316  0.00  0.00    +0.149 C 
BRANCH  21  22
ATOM     22  C   LYS A  11       0.615  32.363  19.575  0.00  0.00    +0.241 C 
ATOM     23  N   LYS A  12       0.876  31.764  20.731  0.00  0.00    -0.298 N 
ATOM     24  H   LYS A  12       1.403  30.867  20.733  0.00  0.00    +0.150 HD
ATOM     25  O   LYS A  11       0.008  33.434  19.497  0.00  0.00    -0.273 OA
BRANCH  23  26
ATOM     26  CA  LYS A  12       0.439  32.338  21.996  0.00  0.00    +0.137 C 
BRANCH  26  27
ATOM     27  C   LYS A  12       1.104  33.678  22.286  0.00  0.00    +0.227 C 
ATOM     28  O   LYS A  12       0.518  34.543  22.936  0.00  0.00    -0.286 OA
ENDBRANCH  26  27
BRANCH  26  29
ATOM     29  CB  LYS A  12       0.672  31.355  23.144  0.00  0.00    +0.028 C 
BRANCH  29  30
ATOM     30  CG  LYS A  12      -0.505  30.422  23.367  0.00  0.00    -0.000 C 
BRANCH  30  31
ATOM     31  CD  LYS A  12      -0.074  28.972  23.433  0.00  0.00    -0.024 C 
BRANCH  31  32
ATOM     32  CE  LYS A  12       0.820  28.713  24.630  0.00  0.00    -0.086 C 
BRANCH  32  33
ATOM     33  NZ  LYS A  12       1.077  27.257  24.799  0.00  0.00    +0.380 N 
ATOM     34  HZ1 LYS A  12       1.691  27.108  25.625  0.00  0.00    -0.089 HD
ATOM     35  HZ2 LYS A  12       0.174  26.761  24.943  0.00  0.00    -0.089 HD
ATOM     36  HZ3 LYS A  12       1.545  26.888  23.947  0.00  0.00    -0.089 HD
ENDBRANCH  32  33
ENDBRANCH  31  32
ENDBRANCH  30  31
ENDBRANCH  29  30
ENDBRANCH  26  29
ENDBRANCH  23  26
ENDBRANCH  21  22
BRANCH  21  37
ATOM     37  CB  LYS A  11       0.303  30.379  18.076  0.00  0.00    +0.029 C 
BRANCH  37  38
ATOM     38  CG  LYS A  11      -1.204  30.610  18.047  0.00  0.00    +0.000 C 
BRANCH  38  39
ATOM     39  CD  LYS A  11      -1.564  31.765  17.123  0.00  0.00    -0.024 C 
BRANCH  39  40
ATOM     40  CE  LYS A  11      -3.060  32.033  17.126  0.00  0.00    -0.086 C 
BRANCH  40  41
ATOM     41  NZ  LYS A  11      -3.414  33.243  16.333  0.00  0.00    +0.380 N 
ATOM     42  HZ1 LYS A  11      -2.935  34.073  16.737  0.00  0.00    -0.089 HD
ATOM     43  HZ2 LYS A  11      -4.444  33.387  16.363  0.00  0.00    -0.089 HD
ATOM     44  HZ3 LYS A  11      -3.110  33.111  15.347  0.00  0.00    -0.089 HD
ENDBRANCH  40  41
ENDBRANCH  39  40
ENDBRANCH  38  39
ENDBRANCH  37  38
ENDBRANCH  21  37
ENDBRANCH  19  21
ENDBRANCH  16  17
BRANCH  16  45
ATOM     45  CB  LEU A  10       5.441  31.910  17.130  0.00  0.00    +0.029 C 
BRANCH  45  46
ATOM     46  CG  LEU A  10       5.372  33.242  16.381  0.00  0.00    +0.002 C 
ATOM     47  CD2 LEU A  10       6.241  34.292  17.067  0.00  0.00    +0.000 C 
ATOM     48  CD1 LEU A  10       5.779  33.068  14.919  0.00  0.00    +0.000 C 
ENDBRANCH  45  46
ENDBRANCH  16  45
ENDBRANCH  14  16
ENDBRANCH  11  12
BRANCH  11  49
ATOM     49  CB  ASP A   9       4.251  27.916  20.517  0.00  0.00    +0.143 C 
BRANCH  49  50
ATOM     50  CG  ASP A   9       2.781  28.239  20.734  0.00  0.00    +0.367 C 
ATOM     51  OD2 ASP A   9       2.059  27.378  21.275  0.00  0.00    -0.246 OA
ATOM     52  OD1 ASP A   9       2.340  29.341  20.357  0.00  0.00    -0.246 OA
ENDBRANCH  49  50
ENDBRANCH  11  49
ENDBRANCH   9  11
ENDBRANCH   6   7
BRANCH   6  53
ATOM     53  CB  GLN A   8       5.898  30.776  24.973  0.00  0.00    +0.039 C 
BRANCH  53  54
ATOM     54  CG  GLN A   8       4.497  31.140  24.545  0.00  0.00    +0.087 C 
BRANCH  54  55
ATOM     55  CD  GLN A   8       3.937  32.302  25.333  0.00  0.00    +0.219 C 
ATOM     56  NE2 GLN A   8       2.723  32.137  25.846  0.00  0.00    -0.329 N 
ATOM     57 HE21 GLN A   8       2.287  32.897  26.406  0.00  0.00    +0.145 HD
ATOM     58 HE22 GLN A   8       2.208  31.247  25.687  0.00  0.00    +0.145 HD
ATOM     59  OE1 GLN A   8       4.591  33.335  25.490  0.00  0.00    -0.275 OA
ENDBRANCH  54  55
ENDBRANCH  53  54
ENDBRANCH   6  53
ENDBRANCH   4   6
ENDBRANCH   1   2
BRANCH   1  61
ATOM     60  C   LEU A   6      10.040  26.844  26.069  0.00  0.00    +0.241 C 
ATOM     61  N   HIS A   7      10.003  28.119  26.440  0.00  0.00    -0.297 N 
ATOM     62  H   HIS A   7      10.758  28.756  26.115  0.00  0.00    +0.150 HD
ATOM     63  O   LEU A   6       9.086  26.077  26.192  0.00  0.00    -0.273 OA
BRANCH  60  64
ATOM     64  CA  LEU A   6      11.353  26.361  25.466  0.00  0.00    +0.149 C 
BRANCH  64  67
ATOM     65  C   PHE A   5      12.570  24.543  26.520  0.00  0.00    +0.241 C 
ATOM     66  O   PHE A   5      13.509  25.278  26.816  0.00  0.00    -0.273 OA
ATOM     67  N   LEU A   6      11.544  24.950  25.782  0.00  0.00    -0.297 N 
ATOM     68  H   LEU A   6      10.864  24.250  25.423  0.00  0.00    +0.150 HD
BRANCH  65  69
ATOM     69  CA  PHE A   5      12.540  23.090  26.980  0.00  0.00    +0.153 C 
BRANCH  69  71
ATOM     70  C   GLU A   4      13.986  21.778  25.546  0.00  0.00    +0.241 C 
ATOM     71  N   PHE A   5      13.791  22.395  26.706  0.00  0.00    -0.297 N 
ATOM     72  H   PHE A   5      14.540  22.382  27.427  0.00  0.00    +0.150 HD
ATOM     73  O   GLU A   4      13.128  21.750  24.663  0.00  0.00    -0.273 OA
BRANCH  70  74
ATOM     74  CA  GLU A   4      15.336  21.085  25.344  0.00  0.00    +0.149 C 
BRANCH  74  77
ATOM     75  C   PHE A   3      14.335  18.908  25.019  0.00  0.00    +0.241 C 
ATOM     76  O   PHE A   3      13.944  18.869  26.182  0.00  0.00    -0.273 OA
ATOM     77  N   GLU A   4      15.121  19.877  24.562  0.00  0.00    -0.297 N 
ATOM     78  H   GLU A   4      15.586  19.771  23.638  0.00  0.00    +0.150 HD
BRANCH  75  79
ATOM     79  CA  PHE A   3      13.907  17.837  24.016  0.00  0.00    +0.153 C 
BRANCH  79  81
ATOM     80  C   VAL A   2      14.275  15.500  24.638  0.00  0.00    +0.241 C 
ATOM     81  N   PHE A   3      13.531  16.602  24.699  0.00  0.00    -0.297 N 
ATOM     82  H   PHE A   3      12.651  16.583  25.253  0.00  0.00    +0.150 HD
ATOM     83  O   VAL A   2      15.324  15.431  23.996  0.00  0.00    -0.273 OA
BRANCH  80  84
ATOM     84  CA  VAL A   2      13.753  14.288  25.411  0.00  0.00    +0.148 C 
BRANCH  84  87
ATOM     85  C   LEU A   1      12.100  12.985  24.175  0.00  0.00    +0.238 C 
ATOM     86  O   LEU A   1      11.162  13.636  24.634  0.00  0.00    -0.274 OA
ATOM     87  N   VAL A   2      13.368  13.215  24.497  0.00  0.00    -0.297 N 
ATOM     88  H   VAL A   2      14.110  12.613  24.086  0.00  0.00    +0.150 HD
BRANCH  85  89
ATOM     89  CA  LEU A   1      11.846  11.833  23.208  0.00  0.00    +0.145 C 
BRANCH  89  90
ATOM     90  N   LEU A   1      10.906  10.904  23.819  0.00  0.00    -0.238 NA
ATOM     91  H   LEU A   1       9.886  11.097  23.764  0.00  0.00    +0.142 HD
ENDBRANCH  89  90
BRANCH  89  92
ATOM     92  CB  LEU A   1      11.314  12.357  21.871  0.00  0.00    +0.026 C 
BRANCH  92  93
ATOM     93  CG  LEU A   1      10.862  11.302  20.856  0.00  0.00    +0.002 C 
ATOM     94  CD2 LEU A   1      11.815  10.127  20.866  0.00  0.00    +0.000 C 
ATOM     95  CD1 LEU A   1      10.771  11.899  19.459  0.00  0.00    +0.000 C 
ENDBRANCH  92  93
ENDBRANCH  89  92
ENDBRANCH  85  89
ENDBRANCH  84  87
BRANCH  84  96
ATOM     96  CB  VAL A   2      14.839  13.814  26.403  0.00  0.00    +0.027 C 
ATOM     97  CG2 VAL A   2      15.098  14.873  27.473  0.00  0.00    +0.002 C 
ATOM     98  CG1 VAL A   2      14.431  12.499  27.043  0.00  0.00    +0.002 C 
ENDBRANCH  84  96
ENDBRANCH  80  84
ENDBRANCH  79  81
BRANCH  79  99
ATOM     99  CB  PHE A   3      12.722  18.397  23.218  0.00  0.00    +0.055 C 
BRANCH  99 100
ATOM    100  CG  PHE A   3      12.260  17.525  22.084  0.00  0.00    -0.020 A 
ATOM    101  CD2 PHE A   3      11.237  16.609  22.267  0.00  0.00    -0.004 A 
ATOM    102  CE2 PHE A   3      10.794  15.820  21.217  0.00  0.00    -0.000 A 
ATOM    103  CZ  PHE A   3      11.368  15.948  19.967  0.00  0.00    -0.000 A 
ATOM    104  CE1 PHE A   3      12.381  16.863  19.767  0.00  0.00    -0.000 A 
ATOM    105  CD1 PHE A   3      12.819  17.650  20.823  0.00  0.00    -0.004 A 
ENDBRANCH  99 100
ENDBRANCH  79  99
ENDBRANCH  75  79
ENDBRANCH  74  77
BRANCH  74 106
ATOM    106  CB  GLU A   4      16.295  22.031  24.625  0.00  0.00    +0.041 C 
BRANCH 106 107
ATOM    107  CG  GLU A   4      15.750  22.575  23.312  0.00  0.00    +0.116 C 
BRANCH 107 108
ATOM    108  CD  GLU A   4      16.655  23.619  22.679  0.00  0.00    +0.365 C 
ATOM    109  OE2 GLU A   4      17.077  24.557  23.387  0.00  0.00    -0.246 OA
ATOM    110  OE1 GLU A   4      16.946  23.501  21.471  0.00  0.00    -0.246 OA
ENDBRANCH 107 108
ENDBRANCH 106 107
ENDBRANCH  74 106
ENDBRANCH  70  74
ENDBRANCH  69  71
BRANCH  69 111
ATOM    111  CB  PHE A   5      12.205  23.024  28.467  0.00  0.00    +0.055 C 
BRANCH 111 112
ATOM    112  CG  PHE A   5      10.970  23.792  28.843  0.00  0.00    -0.020 A 
ATOM    113  CD2 PHE A   5      11.068  25.004  29.507  0.00  0.00    -0.004 A 
ATOM    114  CE2 PHE A   5       9.932  25.715  29.860  0.00  0.00    -0.000 A 
ATOM    115  CZ  PHE A   5       8.682  25.215  29.548  0.00  0.00    -0.000 A 
ATOM    116  CE1 PHE A   5       8.571  24.005  28.884  0.00  0.00    -0.000 A 
ATOM    117  CD1 PHE A   5       9.713  23.300  28.537  0.00  0.00    -0.004 A 
ENDBRANCH 111 112
ENDBRANCH  69 111
ENDBRANCH  65  69
ENDBRANCH  64  67
BRANCH  64 118
ATOM    118  CB  LEU A   6      11.408  26.615  23.957  0.00  0.00    +0.029 C 
BRANCH 118 119
ATOM    119  CG  LEU A   6      12.833  26.700  23.390  0.00  0.00    +0.002 C 
ATOM    120  CD2 LEU A   6      13.276  25.360  22.838  0.00  0.00    +0.000 C 
ATOM    121  CD1 LEU A   6      12.926  27.775  22.318  0.00  0.00    +0.000 C 
ENDBRANCH 118 119
ENDBRANCH  64 118
ENDBRANCH  60  64
ENDBRANCH   1  61
BRANCH   1 122
ATOM    122  CB  HIS A   7       9.399  29.991  27.897  0.00  0.00    +0.076 C 
BRANCH 122 123
ATOM    123  CG  HIS A   7      10.724  29.907  28.588  0.00  0.00    +0.082 A 
ATOM    124  CD2 HIS A   7      11.046  29.910  29.904  0.00  0.00    +0.115 A 
ATOM    125  NE2 HIS A   7      12.413  29.795  29.986  0.00  0.00    -0.221 NA
ATOM    126  CE1 HIS A   7      12.912  29.720  28.765  0.00  0.00    +0.199 A 
ATOM    127  ND1 HIS A   7      11.913  29.782  27.902  0.00  0.00    -0.227 NA
ENDBRANCH 122 123
ENDBRANCH   1 122
TORSDOF 55
REMARK  Name = ../refined-set-2016/4bcp/4bcp_pocket.pdb
REMARK  217 active torsions:
REMARK  status: ('A' for Active; 'I' for Inactive)
REMARK    1  A    between atoms: _1  and  _3
REMARK    2  A    between atoms: _3  and  _4
REMARK    3  A    between atoms: _3  and  _6
REMARK    4  A    between atoms: _6  and  _7
REMARK    5  A    between atoms: _7  and  _8
REMARK    6  A    between atoms: _11  and  _13
REMARK    7  A    between atoms: _13  and  _14
REMARK    8  A    between atoms: _13  and  _16
REMARK    9  A    between atoms: _16  and  _17
REMARK   10  A    between atoms: _17  and  _18
REMARK   11  A    between atoms: _18  and  _19
REMARK   12  A    between atoms: _19  and  _20
REMARK   13  A    between atoms: _24  and  _26
REMARK   14  A    between atoms: _26  and  _27
REMARK   15  A    between atoms: _26  and  _29
REMARK   16  A    between atoms: _29  and  _30
REMARK   17  A    between atoms: _33  and  _35
REMARK   18  A    between atoms: _35  and  _36
REMARK   19  A    between atoms: _38  and  _40
REMARK   20  A    between atoms: _40  and  _41
REMARK   21  A    between atoms: _40  and  _43
REMARK   22  A    between atoms: _43  and  _44
REMARK   23  A    between atoms: _44  and  _45
REMARK   24  A    between atoms: _48  and  _50
REMARK   25  A    between atoms: _50  and  _51
REMARK   26  A    between atoms: _53  and  _55
REMARK   27  A    between atoms: _55  and  _56
REMARK   28  A    between atoms: _55  and  _58
REMARK   29  A    between atoms: _58  and  _59
REMARK   30  A    between atoms: _62  and  _64
REMARK   31  A    between atoms: _64  and  _65
REMARK   32  A    between atoms: _64  and  _67
REMARK   33  A    between atoms: _67  and  _68
REMARK   34  A    between atoms: _73  and  _74
REMARK   35  A    between atoms: _76  and  _78
REMARK   36  A    between atoms: _78  and  _79
REMARK   37  A    between atoms: _81  and  _83
REMARK   38  A    between atoms: _83  and  _84
REMARK   39  A    between atoms: _83  and  _86
REMARK   40  A    between atoms: _89  and  _91
REMARK   41  A    between atoms: _91  and  _92
REMARK   42  A    between atoms: _91  and  _94
REMARK   43  A    between atoms: _97  and  _99
REMARK   44  A    between atoms: _99  and  _100
REMARK   45  A    between atoms: _99  and  _102
REMARK   46  A    between atoms: _102  and  _103
REMARK   47  A    between atoms: _108  and  _109
REMARK   48  A    between atoms: _111  and  _113
REMARK   49  A    between atoms: _113  and  _114
REMARK   50  A    between atoms: _113  and  _116
REMARK   51  A    between atoms: _116  and  _117
REMARK   52  A    between atoms: _117  and  _118
REMARK   53  A    between atoms: _118  and  _119
REMARK   54  A    between atoms: _119  and  _120
REMARK   55  A    between atoms: _124  and  _126
REMARK   56  A    between atoms: _126  and  _127
REMARK   57  A    between atoms: _130  and  _132
REMARK   58  A    between atoms: _132  and  _133
REMARK   59  A    between atoms: _132  and  _135
REMARK   60  A    between atoms: _138  and  _140
REMARK   61  A    between atoms: _140  and  _141
REMARK   62  A    between atoms: _140  and  _143
REMARK   63  A    between atoms: _146  and  _148
REMARK   64  A    between atoms: _148  and  _149
REMARK   65  A    between atoms: _152  and  _154
REMARK   66  A    between atoms: _154  and  _155
REMARK   67  A    between atoms: _154  and  _157
REMARK   68  A    between atoms: _157  and  _158
REMARK   69  A    between atoms: _161  and  _163
REMARK   70  A    between atoms: _163  and  _164
REMARK   71  A    between atoms: _163  and  _166
REMARK   72  A    between atoms: _166  and  _167
REMARK   73  A    between atoms: _167  and  _168
REMARK   74  A    between atoms: _168  and  _169
REMARK   75  A    between atoms: _169  and  _170
REMARK   76  A    between atoms: _174  and  _176
REMARK   77  A    between atoms: _176  and  _177
REMARK   78  A    between atoms: _176  and  _179
REMARK   79  A    between atoms: _179  and  _180
REMARK   80  A    between atoms: _180  and  _181
REMARK   81  A    between atoms: _181  and  _182
REMARK   82  A    between atoms: _182  and  _183
REMARK   83  A    between atoms: _187  and  _189
REMARK   84  A    between atoms: _189  and  _190
REMARK   85  A    between atoms: _189  and  _192
REMARK   86  A    between atoms: _192  and  _193
REMARK   87  A    between atoms: _193  and  _194
REMARK   88  A    between atoms: _197  and  _199
REMARK   89  A    between atoms: _199  and  _200
REMARK   90  A    between atoms: _199  and  _202
REMARK   91  A    between atoms: _202  and  _203
REMARK   92  A    between atoms: _206  and  _208
REMARK   93  A    between atoms: _208  and  _209
REMARK   94  A    between atoms: _208  and  _211
REMARK   95  A    between atoms: _211  and  _212
REMARK   96  A    between atoms: _215  and  _217
REMARK   97  A    between atoms: _217  and  _218
REMARK   98  A    between atoms: _217  and  _220
REMARK   99  A    between atoms: _223  and  _225
REMARK  100  A    between atoms: _225  and  _226
REMARK  101  A    between atoms: _225  and  _228
REMARK  102  A    between atoms: _228  and  _229
REMARK  103  A    between atoms: _229  and  _230
REMARK  104  A    between atoms: _230  and  _231
REMARK  105  A    between atoms: _231  and  _232
REMARK  106  A    between atoms: _236  and  _238
REMARK  107  A    between atoms: _238  and  _239
REMARK  108  A    between atoms: _238  and  _241
REMARK  109  A    between atoms: _241  and  _242
REMARK  110  A    between atoms: _245  and  _247
REMARK  111  A    between atoms: _247  and  _248
REMARK  112  A    between atoms: _247  and  _250
REMARK  113  A    between atoms: _250  and  _251
REMARK  114  A    between atoms: _254  and  _256
REMARK  115  A    between atoms: _256  and  _257
REMARK  116  A    between atoms: _256  and  _259
REMARK  117  A    between atoms: _259  and  _260
REMARK  118  A    between atoms: _263  and  _265
REMARK  119  A    between atoms: _265  and  _266
REMARK  120  A    between atoms: _265  and  _268
REMARK  121  A    between atoms: _271  and  _273
REMARK  122  A    between atoms: _273  and  _274
REMARK  123  A    between atoms: _273  and  _276
REMARK  124  A    between atoms: _276  and  _277
REMARK  125  A    between atoms: _283  and  _285
REMARK  126  A    between atoms: _285  and  _286
REMARK  127  A    between atoms: _285  and  _288
REMARK  128  A    between atoms: _288  and  _289
REMARK  129  A    between atoms: _289  and  _290
REMARK  130  A    between atoms: _293  and  _295
REMARK  131  A    between atoms: _295  and  _296
REMARK  132  A    between atoms: _295  and  _298
REMARK  133  A    between atoms: _298  and  _299
REMARK  134  A    between atoms: _305  and  _307
REMARK  135  A    between atoms: _307  and  _308
REMARK  136  A    between atoms: _307  and  _310
REMARK  137  A    between atoms: _310  and  _311
REMARK  138  A    between atoms: _314  and  _316
REMARK  139  A    between atoms: _316  and  _317
REMARK  140  A    between atoms: _316  and  _319
REMARK  141  A    between atoms: _319  and  _320
REMARK  142  A    between atoms: _325  and  _327
REMARK  143  A    between atoms: _327  and  _328
REMARK  144  A    between atoms: _327  and  _330
REMARK  145  A    between atoms: _330  and  _331
REMARK  146  A    between atoms: _331  and  _332
REMARK  147  A    between atoms: _337  and  _339
REMARK  148  A    between atoms: _339  and  _340
REMARK  149  A    between atoms: _339  and  _342
REMARK  150  A    between atoms: _342  and  _343
REMARK  151  A    between atoms: _346  and  _348
REMARK  152  A    between atoms: _348  and  _349
REMARK  153  A    between atoms: _348  and  _351
REMARK  154  A    between atoms: _351  and  _352
REMARK  155  A    between atoms: _355  and  _357
REMARK  156  A    between atoms: _357  and  _358
REMARK  157  A    between atoms: _357  and  _360
REMARK  158  A    between atoms: _360  and  _361
REMARK  159  A    between atoms: _361  and  _362
REMARK  160  A    between atoms: _362  and  _363
REMARK  161  A    between atoms: _363  and  _364
REMARK  162  A    between atoms: _368  and  _370
REMARK  163  A    between atoms: _370  and  _371
REMARK  164  A    between atoms: _370  and  _373
REMARK  165  A    between atoms: _373  and  _374
REMARK  166  A    between atoms: _374  and  _375
REMARK  167  A    between atoms: _375  and  _376
REMARK  168  A    between atoms: _376  and  _377
REMARK  169  A    between atoms: _381  and  _383
REMARK  170  A    between atoms: _383  and  _384
REMARK  171  A    between atoms: _383  and  _386
REMARK  172  A    between atoms: _386  and  _387
REMARK  173  A    between atoms: _390  and  _392
REMARK  174  A    between atoms: _392  and  _393
REMARK  175  A    between atoms: _392  and  _395
REMARK  176  A    between atoms: _395  and  _396
REMARK  177  A    between atoms: _396  and  _397
REMARK  178  A    between atoms: _397  and  _398
REMARK  179  A    between atoms: _398  and  _399
REMARK  180  A    between atoms: _404  and  _405
REMARK  181  A    between atoms: _410  and  _412
REMARK  182  A    between atoms: _412  and  _413
REMARK  183  A    between atoms: _412  and  _415
REMARK  184  A    between atoms: _415  and  _416
REMARK  185  A    between atoms: _416  and  _417
REMARK  186  A    between atoms: _422  and  _424
REMARK  187  A    between atoms: _424  and  _425
REMARK  188  A    between atoms: _424  and  _427
REMARK  189  A    between atoms: _427  and  _428
REMARK  190  A    between atoms: _433  and  _435
REMARK  191  A    between atoms: _435  and  _436
REMARK  192  A    between atoms: _435  and  _438
REMARK  193  A    between atoms: _438  and  _439
REMARK  194  A    between atoms: _442  and  _444
REMARK  195  A    between atoms: _444  and  _445
REMARK  196  A    between atoms: _444  and  _447
REMARK  197  A    between atoms: _447  and  _448
REMARK  198  A    between atoms: _451  and  _453
REMARK  199  A    between atoms: _453  and  _454
REMARK  200  A    between atoms: _453  and  _456
REMARK  201  A    between atoms: _456  and  _457
REMARK  202  A    between atoms: _460  and  _462
REMARK  203  A    between atoms: _462  and  _463
REMARK  204  A    between atoms: _462  and  _465
REMARK  205  A    between atoms: _465  and  _466
REMARK  206  A    between atoms: _469  and  _471
REMARK  207  A    between atoms: _471  and  _472
REMARK  208  A    between atoms: _475  and  _477
REMARK  209  A    between atoms: _477  and  _478
REMARK  210  A    between atoms: _477  and  _480
REMARK  211  A    between atoms: _480  and  _481
REMARK  212  A    between atoms: _484  and  _486
REMARK  213  A    between atoms: _486  and  _487
REMARK  214  A    between atoms: _486  and  _489
REMARK  215  A    between atoms: _489  and  _490
REMARK  216  A    between atoms: _496  and  _498
REMARK  217  A    between atoms: _498  and  _499
REMARK                            x       y       z     vdW  Elec       q    Type
REMARK                         _______ _______ _______ _____ _____    ______ ____
ROOT
ATOM      1  CA  ASP A   1       4.576  21.957   8.802  0.00  0.00    +0.144 C 
ENDROOT
BRANCH   1   2
ATOM      2  N   ASP A   1       5.633  21.586   7.861  0.00  0.00    -0.239 NA
ATOM      3  H   ASP A   1       6.614  21.881   8.042  0.00  0.00    +0.142 HD
ENDBRANCH   1   2
BRANCH   1   4
ATOM      4  C   ASP A   1       4.952  23.195   9.608  0.00  0.00    +0.225 C 
ATOM      5  O   ASP A   1       4.735  23.252  10.817  0.00  0.00    -0.287 OA
ENDBRANCH   1   4
BRANCH   1   6
ATOM      6  CB  ASP A   1       4.232  20.791   9.738  0.00  0.00    +0.139 C 
BRANCH   6   7
ATOM      7  CG  ASP A   1       2.847  20.931  10.368  0.00  0.00    +0.367 C 
ATOM      8  OD2 ASP A   1       2.580  20.244  11.376  0.00  0.00    -0.246 OA
ATOM      9  OD1 ASP A   1       2.021  21.716   9.849  0.00  0.00    -0.246 OA
ENDBRANCH   6   7
ENDBRANCH   1   6
TORSDOF 4
REMARK  Name = ../refined-set-2016/4bcp/4bcp_pocket.pdb
REMARK  217 active torsions:
REMARK  status: ('A' for Active; 'I' for Inactive)
REMARK    1  A    between atoms: _1  and  _3
REMARK    2  A    between atoms: _3  and  _4
REMARK    3  A    between atoms: _3  and  _6
REMARK    4  A    between atoms: _6  and  _7
REMARK    5  A    between atoms: _7  and  _8
REMARK    6  A    between atoms: _11  and  _13
REMARK    7  A    between atoms: _13  and  _14
REMARK    8  A    between atoms: _13  and  _16
REMARK    9  A    between atoms: _16  and  _17
REMARK   10  A    between atoms: _17  and  _18
REMARK   11  A    between atoms: _18  and  _19
REMARK   12  A    between atoms: _19  and  _20
REMARK   13  A    between atoms: _24  and  _26
REMARK   14  A    between atoms: _26  and  _27
REMARK   15  A    between atoms: _26  and  _29
REMARK   16  A    between atoms: _29  and  _30
REMARK   17  A    between atoms: _33  and  _35
REMARK   18  A    between atoms: _35  and  _36
REMARK   19  A    between atoms: _38  and  _40
REMARK   20  A    between atoms: _40  and  _41
REMARK   21  A    between atoms: _40  and  _43
REMARK   22  A    between atoms: _43  and  _44
REMARK   23  A    between atoms: _44  and  _45
REMARK   24  A    between atoms: _48  and  _50
REMARK   25  A    between atoms: _50  and  _51
REMARK   26  A    between atoms: _53  and  _55
REMARK   27  A    between atoms: _55  and  _56
REMARK   28  A    between atoms: _55  and  _58
REMARK   29  A    between atoms: _58  and  _59
REMARK   30  A    between atoms: _62  and  _64
REMARK   31  A    between atoms: _64  and  _65
REMARK   32  A    between atoms: _64  and  _67
REMARK   33  A    between atoms: _67  and  _68
REMARK   34  A    between atoms: _73  and  _74
REMARK   35  A    between atoms: _76  and  _78
REMARK   36  A    between atoms: _78  and  _79
REMARK   37  A    between atoms: _81  and  _83
REMARK   38  A    between atoms: _83  and  _84
REMARK   39  A    between atoms: _83  and  _86
REMARK   40  A    between atoms: _89  and  _91
REMARK   41  A    between atoms: _91  and  _92
REMARK   42  A    between atoms: _91  and  _94
REMARK   43  A    between atoms: _97  and  _99
REMARK   44  A    between atoms: _99  and  _100
REMARK   45  A    between atoms: _99  and  _102
REMARK   46  A    between atoms: _102  and  _103
REMARK   47  A    between atoms: _108  and  _109
REMARK   48  A    between atoms: _111  and  _113
REMARK   49  A    between atoms: _113  and  _114
REMARK   50  A    between atoms: _113  and  _116
REMARK   51  A    between atoms: _116  and  _117
REMARK   52  A    between atoms: _117  and  _118
REMARK   53  A    between atoms: _118  and  _119
REMARK   54  A    between atoms: _119  and  _120
REMARK   55  A    between atoms: _124  and  _126
REMARK   56  A    between atoms: _126  and  _127
REMARK   57  A    between atoms: _130  and  _132
REMARK   58  A    between atoms: _132  and  _133
REMARK   59  A    between atoms: _132  and  _135
REMARK   60  A    between atoms: _138  and  _140
REMARK   61  A    between atoms: _140  and  _141
REMARK   62  A    between atoms: _140  and  _143
REMARK   63  A    between atoms: _146  and  _148
REMARK   64  A    between atoms: _148  and  _149
REMARK   65  A    between atoms: _152  and  _154
REMARK   66  A    between atoms: _154  and  _155
REMARK   67  A    between atoms: _154  and  _157
REMARK   68  A    between atoms: _157  and  _158
REMARK   69  A    between atoms: _161  and  _163
REMARK   70  A    between atoms: _163  and  _164
REMARK   71  A    between atoms: _163  and  _166
REMARK   72  A    between atoms: _166  and  _167
REMARK   73  A    between atoms: _167  and  _168
REMARK   74  A    between atoms: _168  and  _169
REMARK   75  A    between atoms: _169  and  _170
REMARK   76  A    between atoms: _174  and  _176
REMARK   77  A    between atoms: _176  and  _177
REMARK   78  A    between atoms: _176  and  _179
REMARK   79  A    between atoms: _179  and  _180
REMARK   80  A    between atoms: _180  and  _181
REMARK   81  A    between atoms: _181  and  _182
REMARK   82  A    between atoms: _182  and  _183
REMARK   83  A    between atoms: _187  and  _189
REMARK   84  A    between atoms: _189  and  _190
REMARK   85  A    between atoms: _189  and  _192
REMARK   86  A    between atoms: _192  and  _193
REMARK   87  A    between atoms: _193  and  _194
REMARK   88  A    between atoms: _197  and  _199
REMARK   89  A    between atoms: _199  and  _200
REMARK   90  A    between atoms: _199  and  _202
REMARK   91  A    between atoms: _202  and  _203
REMARK   92  A    between atoms: _206  and  _208
REMARK   93  A    between atoms: _208  and  _209
REMARK   94  A    between atoms: _208  and  _211
REMARK   95  A    between atoms: _211  and  _212
REMARK   96  A    between atoms: _215  and  _217
REMARK   97  A    between atoms: _217  and  _218
REMARK   98  A    between atoms: _217  and  _220
REMARK   99  A    between atoms: _223  and  _225
REMARK  100  A    between atoms: _225  and  _226
REMARK  101  A    between atoms: _225  and  _228
REMARK  102  A    between atoms: _228  and  _229
REMARK  103  A    between atoms: _229  and  _230
REMARK  104  A    between atoms: _230  and  _231
REMARK  105  A    between atoms: _231  and  _232
REMARK  106  A    between atoms: _236  and  _238
REMARK  107  A    between atoms: _238  and  _239
REMARK  108  A    between atoms: _238  and  _241
REMARK  109  A    between atoms: _241  and  _242
REMARK  110  A    between atoms: _245  and  _247
REMARK  111  A    between atoms: _247  and  _248
REMARK  112  A    between atoms: _247  and  _250
REMARK  113  A    between atoms: _250  and  _251
REMARK  114  A    between atoms: _254  and  _256
REMARK  115  A    between atoms: _256  and  _257
REMARK  116  A    between atoms: _256  and  _259
REMARK  117  A    between atoms: _259  and  _260
REMARK  118  A    between atoms: _263  and  _265
REMARK  119  A    between atoms: _265  and  _266
REMARK  120  A    between atoms: _265  and  _268
REMARK  121  A    between atoms: _271  and  _273
REMARK  122  A    between atoms: _273  and  _274
REMARK  123  A    between atoms: _273  and  _276
REMARK  124  A    between atoms: _276  and  _277
REMARK  125  A    between atoms: _283  and  _285
REMARK  126  A    between atoms: _285  and  _286
REMARK  127  A    between atoms: _285  and  _288
REMARK  128  A    between atoms: _288  and  _289
REMARK  129  A    between atoms: _289  and  _290
REMARK  130  A    between atoms: _293  and  _295
REMARK  131  A    between atoms: _295  and  _296
REMARK  132  A    between atoms: _295  and  _298
REMARK  133  A    between atoms: _298  and  _299
REMARK  134  A    between atoms: _305  and  _307
REMARK  135  A    between atoms: _307  and  _308
REMARK  136  A    between atoms: _307  and  _310
REMARK  137  A    between atoms: _310  and  _311
REMARK  138  A    between atoms: _314  and  _316
REMARK  139  A    between atoms: _316  and  _317
REMARK  140  A    between atoms: _316  and  _319
REMARK  141  A    between atoms: _319  and  _320
REMARK  142  A    between atoms: _325  and  _327
REMARK  143  A    between atoms: _327  and  _328
REMARK  144  A    between atoms: _327  and  _330
REMARK  145  A    between atoms: _330  and  _331
REMARK  146  A    between atoms: _331  and  _332
REMARK  147  A    between atoms: _337  and  _339
REMARK  148  A    between atoms: _339  and  _340
REMARK  149  A    between atoms: _339  and  _342
REMARK  150  A    between atoms: _342  and  _343
REMARK  151  A    between atoms: _346  and  _348
REMARK  152  A    between atoms: _348  and  _349
REMARK  153  A    between atoms: _348  and  _351
REMARK  154  A    between atoms: _351  and  _352
REMARK  155  A    between atoms: _355  and  _357
REMARK  156  A    between atoms: _357  and  _358
REMARK  157  A    between atoms: _357  and  _360
REMARK  158  A    between atoms: _360  and  _361
REMARK  159  A    between atoms: _361  and  _362
REMARK  160  A    between atoms: _362  and  _363
REMARK  161  A    between atoms: _363  and  _364
REMARK  162  A    between atoms: _368  and  _370
REMARK  163  A    between atoms: _370  and  _371
REMARK  164  A    between atoms: _370  and  _373
REMARK  165  A    between atoms: _373  and  _374
REMARK  166  A    between atoms: _374  and  _375
REMARK  167  A    between atoms: _375  and  _376
REMARK  168  A    between atoms: _376  and  _377
REMARK  169  A    between atoms: _381  and  _383
REMARK  170  A    between atoms: _383  and  _384
REMARK  171  A    between atoms: _383  and  _386
REMARK  172  A    between atoms: _386  and  _387
REMARK  173  A    between atoms: _390  and  _392
REMARK  174  A    between atoms: _392  and  _393
REMARK  175  A    between atoms: _392  and  _395
REMARK  176  A    between atoms: _395  and  _396
REMARK  177  A    between atoms: _396  and  _397
REMARK  178  A    between atoms: _397  and  _398
REMARK  179  A    between atoms: _398  and  _399
REMARK  180  A    between atoms: _404  and  _405
REMARK  181  A    between atoms: _410  and  _412
REMARK  182  A    between atoms: _412  and  _413
REMARK  183  A    between atoms: _412  and  _415
REMARK  184  A    between atoms: _415  and  _416
REMARK  185  A    between atoms: _416  and  _417
REMARK  186  A    between atoms: _422  and  _424
REMARK  187  A    between atoms: _424  and  _425
REMARK  188  A    between atoms: _424  and  _427
REMARK  189  A    between atoms: _427  and  _428
REMARK  190  A    between atoms: _433  and  _435
REMARK  191  A    between atoms: _435  and  _436
REMARK  192  A    between atoms: _435  and  _438
REMARK  193  A    between atoms: _438  and  _439
REMARK  194  A    between atoms: _442  and  _444
REMARK  195  A    between atoms: _444  and  _445
REMARK  196  A    between atoms: _444  and  _447
REMARK  197  A    between atoms: _447  and  _448
REMARK  198  A    between atoms: _451  and  _453
REMARK  199  A    between atoms: _453  and  _454
REMARK  200  A    between atoms: _453  and  _456
REMARK  201  A    between atoms: _456  and  _457
REMARK  202  A    between atoms: _460  and  _462
REMARK  203  A    between atoms: _462  and  _463
REMARK  204  A    between atoms: _462  and  _465
REMARK  205  A    between atoms: _465  and  _466
REMARK  206  A    between atoms: _469  and  _471
REMARK  207  A    between atoms: _471  and  _472
REMARK  208  A    between atoms: _475  and  _477
REMARK  209  A    between atoms: _477  and  _478
REMARK  210  A    between atoms: _477  and  _480
REMARK  211  A    between atoms: _480  and  _481
REMARK  212  A    between atoms: _484  and  _486
REMARK  213  A    between atoms: _486  and  _487
REMARK  214  A    between atoms: _486  and  _489
REMARK  215  A    between atoms: _489  and  _490
REMARK  216  A    between atoms: _496  and  _498
REMARK  217  A    between atoms: _498  and  _499
REMARK                            x       y       z     vdW  Elec       q    Type
REMARK                         _______ _______ _______ _____ _____    ______ ____
ROOT
ATOM      1  CA  ASN A   4       5.505  24.804  15.778  0.00  0.00    +0.158 C 
ENDROOT
BRANCH   1   4
ATOM      2  C   GLN A   3       3.584  25.785  16.916  0.00  0.00    +0.241 C 
ATOM      3  O   GLN A   3       3.867  25.216  17.966  0.00  0.00    -0.273 OA
ATOM      4  N   ASN A   4       4.316  25.657  15.809  0.00  0.00    -0.297 N 
ATOM      5  H   ASN A   4       4.037  26.173  14.951  0.00  0.00    +0.150 HD
BRANCH   2   6
ATOM      6  CA  GLN A   3       2.344  26.682  16.838  0.00  0.00    +0.149 C 
BRANCH   6   9
ATOM      7  C   PRO A   2       3.346  28.629  15.751  0.00  0.00    +0.241 C 
ATOM      8  O   PRO A   2       4.232  28.736  16.602  0.00  0.00    -0.273 OA
ATOM      9  N   GLN A   3       2.415  27.679  15.772  0.00  0.00    -0.297 N 
ATOM     10  H   GLN A   3       1.714  27.645  15.004  0.00  0.00    +0.150 HD
BRANCH   7  14
ATOM     11  C   LYS A   1       3.573  27.912  12.887  0.00  0.00    +0.241 C 
ATOM     12  O   LYS A   1       4.453  27.356  13.542  0.00  0.00    -0.273 OA
ATOM     13  N   PRO A   2       2.903  28.985  13.331  0.00  0.00    -0.272 N 
ATOM     14  CA  PRO A   2       3.297  29.620  14.592  0.00  0.00    +0.152 C 
ATOM     15  CB  PRO A   2       2.197  30.660  14.815  0.00  0.00    +0.031 C 
ATOM     16  CG  PRO A   2       1.707  30.977  13.440  0.00  0.00    +0.024 C 
ATOM     17  CD  PRO A   2       1.757  29.670  12.706  0.00  0.00    +0.094 C 
BRANCH  11  18
ATOM     18  CA  LYS A   1       3.217  27.385  11.511  0.00  0.00    +0.145 C 
BRANCH  18  19
ATOM     19  N   LYS A   1       4.340  26.553  11.106  0.00  0.00    -0.238 NA
ATOM     20  H   LYS A   1       4.971  26.170  11.838  0.00  0.00    +0.142 HD
ENDBRANCH  18  19
BRANCH  18  21
ATOM     21  CB  LYS A   1       1.923  26.567  11.554  0.00  0.00    +0.026 C 
BRANCH  21  22
ATOM     22  CG  LYS A   1       1.967  25.393  12.513  0.00  0.00    -0.000 C 
BRANCH  22  23
ATOM     23  CD  LYS A   1       0.696  24.570  12.446  0.00  0.00    -0.024 C 
BRANCH  23  24
ATOM     24  CE  LYS A   1       0.830  23.294  13.259  0.00  0.00    -0.086 C 
BRANCH  24  25
ATOM     25  NZ  LYS A   1      -0.397  22.445  13.185  0.00  0.00    +0.380 N 
ATOM     26  HZ1 LYS A   1      -0.258  21.586  13.755  0.00  0.00    -0.089 HD
ATOM     27  HZ2 LYS A   1      -1.210  22.979  13.554  0.00  0.00    -0.089 HD
ATOM     28  HZ3 LYS A   1      -0.575  22.180  12.195  0.00  0.00    -0.089 HD
ENDBRANCH  24  25
ENDBRANCH  23  24
ENDBRANCH  22  23
ENDBRANCH  21  22
ENDBRANCH  18  21
ENDBRANCH  11  18
ENDBRANCH   7  14
ENDBRANCH   6   9
BRANCH   6  29
ATOM     29  CB  GLN A   3       1.082  25.820  16.693  0.00  0.00    +0.039 C 
BRANCH  29  30
ATOM     30  CG  GLN A   3      -0.237  26.583  16.804  0.00  0.00    +0.087 C 
BRANCH  30  31
ATOM     31  CD  GLN A   3      -0.588  27.360  15.538  0.00  0.00    +0.219 C 
ATOM     32  NE2 GLN A   3      -1.657  28.150  15.607  0.00  0.00    -0.329 N 
ATOM     33 HE21 GLN A   3      -2.202  28.211  16.490  0.00  0.00    +0.145 HD
ATOM     34 HE22 GLN A   3      -1.947  28.706  14.777  0.00  0.00    +0.145 HD
ATOM     35  OE1 GLN A   3       0.091  27.252  14.517  0.00  0.00    -0.275 OA
ENDBRANCH  30  31
ENDBRANCH  29  30
ENDBRANCH   6  29
ENDBRANCH   2   6
ENDBRANCH   1   4
BRANCH   1  36
ATOM     36  C   ASN A   4       6.806  25.595  15.863  0.00  0.00    +0.241 C 
ATOM     37  N   LEU A   5       6.691  26.883  16.168  0.00  0.00    -0.297 N 
ATOM     38  H   LEU A   5       5.743  27.291  16.292  0.00  0.00    +0.150 HD
ATOM     39  O   ASN A   4       7.890  25.054  15.651  0.00  0.00    -0.273 OA
BRANCH  37  40
ATOM     40  CA  LEU A   5       7.857  27.737  16.333  0.00  0.00    +0.149 C 
BRANCH  40  41
ATOM     41  C   LEU A   5       7.938  28.167  17.788  0.00  0.00    +0.241 C 
ATOM     42  N   LEU A   6       9.038  27.814  18.447  0.00  0.00    -0.297 N 
ATOM     43  H   LEU A   6       9.832  27.397  17.920  0.00  0.00    +0.150 HD
ATOM     44  O   LEU A   5       7.020  28.804  18.303  0.00  0.00    -0.273 OA
BRANCH  42  45
ATOM     45  CA  LEU A   6       9.162  27.996  19.890  0.00  0.00    +0.149 C 
BRANCH  45  46
ATOM     46  C   LEU A   6      10.152  29.094  20.280  0.00  0.00    +0.241 C 
ATOM     47  N   ILE A   7       9.788  29.887  21.280  0.00  0.00    -0.298 N 
ATOM     48  H   ILE A   7       8.878  29.719  21.754  0.00  0.00    +0.150 HD
ATOM     49  O   LEU A   6      11.228  29.207  19.703  0.00  0.00    -0.273 OA
BRANCH  47  50
ATOM     50  CA  ILE A   7      10.630  30.985  21.730  0.00  0.00    +0.137 C 
BRANCH  50  51
ATOM     51  C   ILE A   7      11.051  30.813  23.186  0.00  0.00    +0.227 C 
ATOM     52  O   ILE A   7      10.344  30.188  23.976  0.00  0.00    -0.286 OA
ENDBRANCH  50  51
BRANCH  50  53
ATOM     53  CB  ILE A   7       9.906  32.332  21.592  0.00  0.00    +0.026 C 
ATOM     54  CG2 ILE A   7       9.550  32.599  20.141  0.00  0.00    +0.002 C 
BRANCH  53  55
ATOM     55  CG1 ILE A   7       8.651  32.350  22.466  0.00  0.00    +0.002 C 
ATOM     56  CD1 ILE A   7       7.890  33.658  22.415  0.00  0.00    +0.000 C 
ENDBRANCH  53  55
ENDBRANCH  50  53
ENDBRANCH  47  50
ENDBRANCH  45  46
BRANCH  45  57
ATOM     57  CB  LEU A   6       9.571  26.679  20.548  0.00  0.00    +0.029 C 
BRANCH  57  58
ATOM     58  CG  LEU A   6       8.680  25.471  20.269  0.00  0.00    +0.002 C 
ATOM     59  CD2 LEU A   6       9.242  24.241  20.962  0.00  0.00    +0.000 C 
ATOM     60  CD1 LEU A   6       7.244  25.736  20.715  0.00  0.00    +0.000 C 
ENDBRANCH  57  58
ENDBRANCH  45  57
ENDBRANCH  42  45
ENDBRANCH  40  41
BRANCH  40  61
ATOM     61  CB  LEU A   5       7.760  28.956  15.416  0.00  0.00    +0.029 C 
BRANCH  61  62
ATOM     62  CG  LEU A   5       7.599  28.638  13.925  0.00  0.00    +0.002 C 
ATOM     63  CD2 LEU A   5       8.762  27.785  13.428  0.00  0.00    +0.000 C 
ATOM     64  CD1 LEU A   5       7.466  29.910  13.092  0.00  0.00    +0.000 C 
ENDBRANCH  61  62
ENDBRANCH  40  61
ENDBRANCH  37  40
ENDBRANCH   1  36
BRANCH   1  65
ATOM     65  CB  ASN A   4       5.520  23.918  14.527  0.00  0.00    +0.114 C 
BRANCH  65  66
ATOM     66  CG  ASN A   4       4.434  22.853  14.548  0.00  0.00    +0.222 C 
ATOM     67  OD1 ASN A   4       3.870  22.548  15.598  0.00  0.00    -0.275 OA
ATOM     68  ND2 ASN A   4       4.143  22.277  13.383  0.00  0.00    -0.329 N 
ATOM     69 HD21 ASN A   4       3.413  21.538  13.336  0.00  0.00    +0.145 HD
ATOM     70 HD22 ASN A   4       4.646  22.567  12.520  0.00  0.00    +0.145 HD
ENDBRANCH  65  66
ENDBRANCH   1  65
TORSDOF 29
REMARK  Name = ../refined-set-2016/4bcp/4bcp_pocket.pdb
REMARK  217 active torsions:
REMARK  status: ('A' for Active; 'I' for Inactive)
REMARK    1  A    between atoms: _1  and  _3
REMARK    2  A    between atoms: _3  and  _4
REMARK    3  A    between atoms: _3  and  _6
REMARK    4  A    between atoms: _6  and  _7
REMARK    5  A    between atoms: _7  and  _8
REMARK    6  A    between atoms: _11  and  _13
REMARK    7  A    between atoms: _13  and  _14
REMARK    8  A    between atoms: _13  and  _16
REMARK    9  A    between atoms: _16  and  _17
REMARK   10  A    between atoms: _17  and  _18
REMARK   11  A    between atoms: _18  and  _19
REMARK   12  A    between atoms: _19  and  _20
REMARK   13  A    between atoms: _24  and  _26
REMARK   14  A    between atoms: _26  and  _27
REMARK   15  A    between atoms: _26  and  _29
REMARK   16  A    between atoms: _29  and  _30
REMARK   17  A    between atoms: _33  and  _35
REMARK   18  A    between atoms: _35  and  _36
REMARK   19  A    between atoms: _38  and  _40
REMARK   20  A    between atoms: _40  and  _41
REMARK   21  A    between atoms: _40  and  _43
REMARK   22  A    between atoms: _43  and  _44
REMARK   23  A    between atoms: _44  and  _45
REMARK   24  A    between atoms: _48  and  _50
REMARK   25  A    between atoms: _50  and  _51
REMARK   26  A    between atoms: _53  and  _55
REMARK   27  A    between atoms: _55  and  _56
REMARK   28  A    between atoms: _55  and  _58
REMARK   29  A    between atoms: _58  and  _59
REMARK   30  A    between atoms: _62  and  _64
REMARK   31  A    between atoms: _64  and  _65
REMARK   32  A    between atoms: _64  and  _67
REMARK   33  A    between atoms: _67  and  _68
REMARK   34  A    between atoms: _73  and  _74
REMARK   35  A    between atoms: _76  and  _78
REMARK   36  A    between atoms: _78  and  _79
REMARK   37  A    between atoms: _81  and  _83
REMARK   38  A    between atoms: _83  and  _84
REMARK   39  A    between atoms: _83  and  _86
REMARK   40  A    between atoms: _89  and  _91
REMARK   41  A    between atoms: _91  and  _92
REMARK   42  A    between atoms: _91  and  _94
REMARK   43  A    between atoms: _97  and  _99
REMARK   44  A    between atoms: _99  and  _100
REMARK   45  A    between atoms: _99  and  _102
REMARK   46  A    between atoms: _102  and  _103
REMARK   47  A    between atoms: _108  and  _109
REMARK   48  A    between atoms: _111  and  _113
REMARK   49  A    between atoms: _113  and  _114
REMARK   50  A    between atoms: _113  and  _116
REMARK   51  A    between atoms: _116  and  _117
REMARK   52  A    between atoms: _117  and  _118
REMARK   53  A    between atoms: _118  and  _119
REMARK   54  A    between atoms: _119  and  _120
REMARK   55  A    between atoms: _124  and  _126
REMARK   56  A    between atoms: _126  and  _127
REMARK   57  A    between atoms: _130  and  _132
REMARK   58  A    between atoms: _132  and  _133
REMARK   59  A    between atoms: _132  and  _135
REMARK   60  A    between atoms: _138  and  _140
REMARK   61  A    between atoms: _140  and  _141
REMARK   62  A    between atoms: _140  and  _143
REMARK   63  A    between atoms: _146  and  _148
REMARK   64  A    between atoms: _148  and  _149
REMARK   65  A    between atoms: _152  and  _154
REMARK   66  A    between atoms: _154  and  _155
REMARK   67  A    between atoms: _154  and  _157
REMARK   68  A    between atoms: _157  and  _158
REMARK   69  A    between atoms: _161  and  _163
REMARK   70  A    between atoms: _163  and  _164
REMARK   71  A    between atoms: _163  and  _166
REMARK   72  A    between atoms: _166  and  _167
REMARK   73  A    between atoms: _167  and  _168
REMARK   74  A    between atoms: _168  and  _169
REMARK   75  A    between atoms: _169  and  _170
REMARK   76  A    between atoms: _174  and  _176
REMARK   77  A    between atoms: _176  and  _177
REMARK   78  A    between atoms: _176  and  _179
REMARK   79  A    between atoms: _179  and  _180
REMARK   80  A    between atoms: _180  and  _181
REMARK   81  A    between atoms: _181  and  _182
REMARK   82  A    between atoms: _182  and  _183
REMARK   83  A    between atoms: _187  and  _189
REMARK   84  A    between atoms: _189  and  _190
REMARK   85  A    between atoms: _189  and  _192
REMARK   86  A    between atoms: _192  and  _193
REMARK   87  A    between atoms: _193  and  _194
REMARK   88  A    between atoms: _197  and  _199
REMARK   89  A    between atoms: _199  and  _200
REMARK   90  A    between atoms: _199  and  _202
REMARK   91  A    between atoms: _202  and  _203
REMARK   92  A    between atoms: _206  and  _208
REMARK   93  A    between atoms: _208  and  _209
REMARK   94  A    between atoms: _208  and  _211
REMARK   95  A    between atoms: _211  and  _212
REMARK   96  A    between atoms: _215  and  _217
REMARK   97  A    between atoms: _217  and  _218
REMARK   98  A    between atoms: _217  and  _220
REMARK   99  A    between atoms: _223  and  _225
REMARK  100  A    between atoms: _225  and  _226
REMARK  101  A    between atoms: _225  and  _228
REMARK  102  A    between atoms: _228  and  _229
REMARK  103  A    between atoms: _229  and  _230
REMARK  104  A    between atoms: _230  and  _231
REMARK  105  A    between atoms: _231  and  _232
REMARK  106  A    between atoms: _236  and  _238
REMARK  107  A    between atoms: _238  and  _239
REMARK  108  A    between atoms: _238  and  _241
REMARK  109  A    between atoms: _241  and  _242
REMARK  110  A    between atoms: _245  and  _247
REMARK  111  A    between atoms: _247  and  _248
REMARK  112  A    between atoms: _247  and  _250
REMARK  113  A    between atoms: _250  and  _251
REMARK  114  A    between atoms: _254  and  _256
REMARK  115  A    between atoms: _256  and  _257
REMARK  116  A    between atoms: _256  and  _259
REMARK  117  A    between atoms: _259  and  _260
REMARK  118  A    between atoms: _263  and  _265
REMARK  119  A    between atoms: _265  and  _266
REMARK  120  A    between atoms: _265  and  _268
REMARK  121  A    between atoms: _271  and  _273
REMARK  122  A    between atoms: _273  and  _274
REMARK  123  A    between atoms: _273  and  _276
REMARK  124  A    between atoms: _276  and  _277
REMARK  125  A    between atoms: _283  and  _285
REMARK  126  A    between atoms: _285  and  _286
REMARK  127  A    between atoms: _285  and  _288
REMARK  128  A    between atoms: _288  and  _289
REMARK  129  A    between atoms: _289  and  _290
REMARK  130  A    between atoms: _293  and  _295
REMARK  131  A    between atoms: _295  and  _296
REMARK  132  A    between atoms: _295  and  _298
REMARK  133  A    between atoms: _298  and  _299
REMARK  134  A    between atoms: _305  and  _307
REMARK  135  A    between atoms: _307  and  _308
REMARK  136  A    between atoms: _307  and  _310
REMARK  137  A    between atoms: _310  and  _311
REMARK  138  A    between atoms: _314  and  _316
REMARK  139  A    between atoms: _316  and  _317
REMARK  140  A    between atoms: _316  and  _319
REMARK  141  A    between atoms: _319  and  _320
REMARK  142  A    between atoms: _325  and  _327
REMARK  143  A    between atoms: _327  and  _328
REMARK  144  A    between atoms: _327  and  _330
REMARK  145  A    between atoms: _330  and  _331
REMARK  146  A    between atoms: _331  and  _332
REMARK  147  A    between atoms: _337  and  _339
REMARK  148  A    between atoms: _339  and  _340
REMARK  149  A    between atoms: _339  and  _342
REMARK  150  A    between atoms: _342  and  _343
REMARK  151  A    between atoms: _346  and  _348
REMARK  152  A    between atoms: _348  and  _349
REMARK  153  A    between atoms: _348  and  _351
REMARK  154  A    between atoms: _351  and  _352
REMARK  155  A    between atoms: _355  and  _357
REMARK  156  A    between atoms: _357  and  _358
REMARK  157  A    between atoms: _357  and  _360
REMARK  158  A    between atoms: _360  and  _361
REMARK  159  A    between atoms: _361  and  _362
REMARK  160  A    between atoms: _362  and  _363
REMARK  161  A    between atoms: _363  and  _364
REMARK  162  A    between atoms: _368  and  _370
REMARK  163  A    between atoms: _370  and  _371
REMARK  164  A    between atoms: _370  and  _373
REMARK  165  A    between atoms: _373  and  _374
REMARK  166  A    between atoms: _374  and  _375
REMARK  167  A    between atoms: _375  and  _376
REMARK  168  A    between atoms: _376  and  _377
REMARK  169  A    between atoms: _381  and  _383
REMARK  170  A    between atoms: _383  and  _384
REMARK  171  A    between atoms: _383  and  _386
REMARK  172  A    between atoms: _386  and  _387
REMARK  173  A    between atoms: _390  and  _392
REMARK  174  A    between atoms: _392  and  _393
REMARK  175  A    between atoms: _392  and  _395
REMARK  176  A    between atoms: _395  and  _396
REMARK  177  A    between atoms: _396  and  _397
REMARK  178  A    between atoms: _397  and  _398
REMARK  179  A    between atoms: _398  and  _399
REMARK  180  A    between atoms: _404  and  _405
REMARK  181  A    between atoms: _410  and  _412
REMARK  182  A    between atoms: _412  and  _413
REMARK  183  A    between atoms: _412  and  _415
REMARK  184  A    between atoms: _415  and  _416
REMARK  185  A    between atoms: _416  and  _417
REMARK  186  A    between atoms: _422  and  _424
REMARK  187  A    between atoms: _424  and  _425
REMARK  188  A    between atoms: _424  and  _427
REMARK  189  A    between atoms: _427  and  _428
REMARK  190  A    between atoms: _433  and  _435
REMARK  191  A    between atoms: _435  and  _436
REMARK  192  A    between atoms: _435  and  _438
REMARK  193  A    between atoms: _438  and  _439
REMARK  194  A    between atoms: _442  and  _444
REMARK  195  A    between atoms: _444  and  _445
REMARK  196  A    between atoms: _444  and  _447
REMARK  197  A    between atoms: _447  and  _448
REMARK  198  A    between atoms: _451  and  _453
REMARK  199  A    between atoms: _453  and  _454
REMARK  200  A    between atoms: _453  and  _456
REMARK  201  A    between atoms: _456  and  _457
REMARK  202  A    between atoms: _460  and  _462
REMARK  203  A    between atoms: _462  and  _463
REMARK  204  A    between atoms: _462  and  _465
REMARK  205  A    between atoms: _465  and  _466
REMARK  206  A    between atoms: _469  and  _471
REMARK  207  A    between atoms: _471  and  _472
REMARK  208  A    between atoms: _475  and  _477
REMARK  209  A    between atoms: _477  and  _478
REMARK  210  A    between atoms: _477  and  _480
REMARK  211  A    between atoms: _480  and  _481
REMARK  212  A    between atoms: _484  and  _486
REMARK  213  A    between atoms: _486  and  _487
REMARK  214  A    between atoms: _486  and  _489
REMARK  215  A    between atoms: _489  and  _490
REMARK  216  A    between atoms: _496  and  _498
REMARK  217  A    between atoms: _498  and  _499
REMARK                            x       y       z     vdW  Elec       q    Type
REMARK                         _______ _______ _______ _____ _____    ______ ____
ROOT
ATOM      1  CA  ASP A   3       7.929  19.337  15.641  0.00  0.00    +0.160 C 
ENDROOT
BRANCH   1   3
ATOM      2  C   ALA A   2       9.061  21.511  15.635  0.00  0.00    +0.241 C 
ATOM      3  N   ASP A   3       8.852  20.324  16.190  0.00  0.00    -0.297 N 
ATOM      4  H   ASP A   3       9.372  20.086  17.059  0.00  0.00    +0.150 HD
ATOM      5  O   ALA A   2       8.513  21.886  14.596  0.00  0.00    -0.273 OA
BRANCH   2   6
ATOM      6  CA  ALA A   2      10.042  22.410  16.372  0.00  0.00    +0.149 C 
ATOM      7  CB  ALA A   2       9.484  22.801  17.730  0.00  0.00    +0.031 C 
BRANCH   6  10
ATOM      8  C   LEU A   1      11.614  24.009  15.444  0.00  0.00    +0.238 C 
ATOM      9  O   LEU A   1      12.566  23.458  15.997  0.00  0.00    -0.274 OA
ATOM     10  N   ALA A   2      10.360  23.594  15.585  0.00  0.00    -0.297 N 
ATOM     11  H   ALA A   2       9.592  24.124  15.126  0.00  0.00    +0.150 HD
BRANCH   8  12
ATOM     12  CA  LEU A   1      11.826  25.236  14.562  0.00  0.00    +0.145 C 
BRANCH  12  13
ATOM     13  N   LEU A   1      12.753  26.154  15.218  0.00  0.00    -0.238 NA
ATOM     14  H   LEU A   1      13.717  26.262  14.844  0.00  0.00    +0.142 HD
ENDBRANCH  12  13
BRANCH  12  15
ATOM     15  CB  LEU A   1      12.335  24.797  13.181  0.00  0.00    +0.026 C 
BRANCH  15  16
ATOM     16  CG  LEU A   1      13.038  25.793  12.247  0.00  0.00    +0.002 C 
ATOM     17  CD2 LEU A   1      12.374  27.150  12.252  0.00  0.00    +0.000 C 
ATOM     18  CD1 LEU A   1      13.073  25.237  10.835  0.00  0.00    +0.000 C 
ENDBRANCH  15  16
ENDBRANCH  12  15
ENDBRANCH   8  12
ENDBRANCH   6  10
ENDBRANCH   2   6
ENDBRANCH   1   3
BRANCH   1  19
ATOM     19  C   ASP A   3       8.267  18.911  14.214  0.00  0.00    +0.241 C 
ATOM     20  N   PHE A   4       9.201  17.974  14.103  0.00  0.00    -0.297 N 
ATOM     21  H   PHE A   4       9.647  17.607  14.968  0.00  0.00    +0.150 HD
ATOM     22  O   ASP A   3       7.688  19.408  13.246  0.00  0.00    -0.273 OA
BRANCH  20  23
ATOM     23  CA  PHE A   4       9.624  17.442  12.817  0.00  0.00    +0.153 C 
BRANCH  23  24
ATOM     24  C   PHE A   4       8.883  16.151  12.474  0.00  0.00    +0.241 C 
ATOM     25  N   GLY A   5       7.678  16.010  13.016  0.00  0.00    -0.296 N 
ATOM     26  H   GLY A   5       7.320  16.757  13.645  0.00  0.00    +0.150 HD
ATOM     27  O   PHE A   4       9.384  15.313  11.726  0.00  0.00    -0.273 OA
BRANCH  25  28
ATOM     28  CA  GLY A   5       6.843  14.849  12.760  0.00  0.00    +0.163 C 
BRANCH  28  29
ATOM     29  C   GLY A   5       6.385  14.710  11.317  0.00  0.00    +0.229 C 
ATOM     30  O   GLY A   5       6.059  13.611  10.874  0.00  0.00    -0.286 OA
ENDBRANCH  28  29
ENDBRANCH  25  28
ENDBRANCH  23  24
BRANCH  23  31
ATOM     31  CB  PHE A   4      11.142  17.230  12.807  0.00  0.00    +0.055 C 
BRANCH  31  32
ATOM     32  CG  PHE A   4      11.919  18.490  12.567  0.00  0.00    -0.020 A 
ATOM     33  CD2 PHE A   4      11.930  19.503  13.511  0.00  0.00    -0.004 A 
ATOM     34  CE2 PHE A   4      12.634  20.668  13.285  0.00  0.00    -0.000 A 
ATOM     35  CZ  PHE A   4      13.332  20.833  12.106  0.00  0.00    -0.000 A 
ATOM     36  CE1 PHE A   4      13.326  19.830  11.158  0.00  0.00    -0.000 A 
ATOM     37  CD1 PHE A   4      12.623  18.669  11.390  0.00  0.00    -0.004 A 
ENDBRANCH  31  32
ENDBRANCH  23  31
ENDBRANCH  20  23
ENDBRANCH   1  19
BRANCH   1  38
ATOM     38  CB  ASP A   3       6.481  19.818  15.730  0.00  0.00    +0.143 C 
BRANCH  38  39
ATOM     39  CG  ASP A   3       5.505  18.667  15.879  0.00  0.00    +0.367 C 
ATOM     40  OD2 ASP A   3       4.437  18.861  16.498  0.00  0.00    -0.246 OA
ATOM     41  OD1 ASP A   3       5.820  17.561  15.388  0.00  0.00    -0.246 OA
ENDBRANCH  38  39
ENDBRANCH   1  38
TORSDOF 16
REMARK  Name = ../refined-set-2016/4bcp/4bcp_pocket.pdb
REMARK  217 active torsions:
REMARK  status: ('A' for Active; 'I' for Inactive)
REMARK    1  A    between atoms: _1  and  _3
REMARK    2  A    between atoms: _3  and  _4
REMARK    3  A    between atoms: _3  and  _6
REMARK    4  A    between atoms: _6  and  _7
REMARK    5  A    between atoms: _7  and  _8
REMARK    6  A    between atoms: _11  and  _13
REMARK    7  A    between atoms: _13  and  _14
REMARK    8  A    between atoms: _13  and  _16
REMARK    9  A    between atoms: _16  and  _17
REMARK   10  A    between atoms: _17  and  _18
REMARK   11  A    between atoms: _18  and  _19
REMARK   12  A    between atoms: _19  and  _20
REMARK   13  A    between atoms: _24  and  _26
REMARK   14  A    between atoms: _26  and  _27
REMARK   15  A    between atoms: _26  and  _29
REMARK   16  A    between atoms: _29  and  _30
REMARK   17  A    between atoms: _33  and  _35
REMARK   18  A    between atoms: _35  and  _36
REMARK   19  A    between atoms: _38  and  _40
REMARK   20  A    between atoms: _40  and  _41
REMARK   21  A    between atoms: _40  and  _43
REMARK   22  A    between atoms: _43  and  _44
REMARK   23  A    between atoms: _44  and  _45
REMARK   24  A    between atoms: _48  and  _50
REMARK   25  A    between atoms: _50  and  _51
REMARK   26  A    between atoms: _53  and  _55
REMARK   27  A    between atoms: _55  and  _56
REMARK   28  A    between atoms: _55  and  _58
REMARK   29  A    between atoms: _58  and  _59
REMARK   30  A    between atoms: _62  and  _64
REMARK   31  A    between atoms: _64  and  _65
REMARK   32  A    between atoms: _64  and  _67
REMARK   33  A    between atoms: _67  and  _68
REMARK   34  A    between atoms: _73  and  _74
REMARK   35  A    between atoms: _76  and  _78
REMARK   36  A    between atoms: _78  and  _79
REMARK   37  A    between atoms: _81  and  _83
REMARK   38  A    between atoms: _83  and  _84
REMARK   39  A    between atoms: _83  and  _86
REMARK   40  A    between atoms: _89  and  _91
REMARK   41  A    between atoms: _91  and  _92
REMARK   42  A    between atoms: _91  and  _94
REMARK   43  A    between atoms: _97  and  _99
REMARK   44  A    between atoms: _99  and  _100
REMARK   45  A    between atoms: _99  and  _102
REMARK   46  A    between atoms: _102  and  _103
REMARK   47  A    between atoms: _108  and  _109
REMARK   48  A    between atoms: _111  and  _113
REMARK   49  A    between atoms: _113  and  _114
REMARK   50  A    between atoms: _113  and  _116
REMARK   51  A    between atoms: _116  and  _117
REMARK   52  A    between atoms: _117  and  _118
REMARK   53  A    between atoms: _118  and  _119
REMARK   54  A    between atoms: _119  and  _120
REMARK   55  A    between atoms: _124  and  _126
REMARK   56  A    between atoms: _126  and  _127
REMARK   57  A    between atoms: _130  and  _132
REMARK   58  A    between atoms: _132  and  _133
REMARK   59  A    between atoms: _132  and  _135
REMARK   60  A    between atoms: _138  and  _140
REMARK   61  A    between atoms: _140  and  _141
REMARK   62  A    between atoms: _140  and  _143
REMARK   63  A    between atoms: _146  and  _148
REMARK   64  A    between atoms: _148  and  _149
REMARK   65  A    between atoms: _152  and  _154
REMARK   66  A    between atoms: _154  and  _155
REMARK   67  A    between atoms: _154  and  _157
REMARK   68  A    between atoms: _157  and  _158
REMARK   69  A    between atoms: _161  and  _163
REMARK   70  A    between atoms: _163  and  _164
REMARK   71  A    between atoms: _163  and  _166
REMARK   72  A    between atoms: _166  and  _167
REMARK   73  A    between atoms: _167  and  _168
REMARK   74  A    between atoms: _168  and  _169
REMARK   75  A    between atoms: _169  and  _170
REMARK   76  A    between atoms: _174  and  _176
REMARK   77  A    between atoms: _176  and  _177
REMARK   78  A    between atoms: _176  and  _179
REMARK   79  A    between atoms: _179  and  _180
REMARK   80  A    between atoms: _180  and  _181
REMARK   81  A    between atoms: _181  and  _182
REMARK   82  A    between atoms: _182  and  _183
REMARK   83  A    between atoms: _187  and  _189
REMARK   84  A    between atoms: _189  and  _190
REMARK   85  A    between atoms: _189  and  _192
REMARK   86  A    between atoms: _192  and  _193
REMARK   87  A    between atoms: _193  and  _194
REMARK   88  A    between atoms: _197  and  _199
REMARK   89  A    between atoms: _199  and  _200
REMARK   90  A    between atoms: _199  and  _202
REMARK   91  A    between atoms: _202  and  _203
REMARK   92  A    between atoms: _206  and  _208
REMARK   93  A    between atoms: _208  and  _209
REMARK   94  A    between atoms: _208  and  _211
REMARK   95  A    between atoms: _211  and  _212
REMARK   96  A    between atoms: _215  and  _217
REMARK   97  A    between atoms: _217  and  _218
REMARK   98  A    between atoms: _217  and  _220
REMARK   99  A    between atoms: _223  and  _225
REMARK  100  A    between atoms: _225  and  _226
REMARK  101  A    between atoms: _225  and  _228
REMARK  102  A    between atoms: _228  and  _229
REMARK  103  A    between atoms: _229  and  _230
REMARK  104  A    between atoms: _230  and  _231
REMARK  105  A    between atoms: _231  and  _232
REMARK  106  A    between atoms: _236  and  _238
REMARK  107  A    between atoms: _238  and  _239
REMARK  108  A    between atoms: _238  and  _241
REMARK  109  A    between atoms: _241  and  _242
REMARK  110  A    between atoms: _245  and  _247
REMARK  111  A    between atoms: _247  and  _248
REMARK  112  A    between atoms: _247  and  _250
REMARK  113  A    between atoms: _250  and  _251
REMARK  114  A    between atoms: _254  and  _256
REMARK  115  A    between atoms: _256  and  _257
REMARK  116  A    between atoms: _256  and  _259
REMARK  117  A    between atoms: _259  and  _260
REMARK  118  A    between atoms: _263  and  _265
REMARK  119  A    between atoms: _265  and  _266
REMARK  120  A    between atoms: _265  and  _268
REMARK  121  A    between atoms: _271  and  _273
REMARK  122  A    between atoms: _273  and  _274
REMARK  123  A    between atoms: _273  and  _276
REMARK  124  A    between atoms: _276  and  _277
REMARK  125  A    between atoms: _283  and  _285
REMARK  126  A    between atoms: _285  and  _286
REMARK  127  A    between atoms: _285  and  _288
REMARK  128  A    between atoms: _288  and  _289
REMARK  129  A    between atoms: _289  and  _290
REMARK  130  A    between atoms: _293  and  _295
REMARK  131  A    between atoms: _295  and  _296
REMARK  132  A    between atoms: _295  and  _298
REMARK  133  A    between atoms: _298  and  _299
REMARK  134  A    between atoms: _305  and  _307
REMARK  135  A    between atoms: _307  and  _308
REMARK  136  A    between atoms: _307  and  _310
REMARK  137  A    between atoms: _310  and  _311
REMARK  138  A    between atoms: _314  and  _316
REMARK  139  A    between atoms: _316  and  _317
REMARK  140  A    between atoms: _316  and  _319
REMARK  141  A    between atoms: _319  and  _320
REMARK  142  A    between atoms: _325  and  _327
REMARK  143  A    between atoms: _327  and  _328
REMARK  144  A    between atoms: _327  and  _330
REMARK  145  A    between atoms: _330  and  _331
REMARK  146  A    between atoms: _331  and  _332
REMARK  147  A    between atoms: _337  and  _339
REMARK  148  A    between atoms: _339  and  _340
REMARK  149  A    between atoms: _339  and  _342
REMARK  150  A    between atoms: _342  and  _343
REMARK  151  A    between atoms: _346  and  _348
REMARK  152  A    between atoms: _348  and  _349
REMARK  153  A    between atoms: _348  and  _351
REMARK  154  A    between atoms: _351  and  _352
REMARK  155  A    between atoms: _355  and  _357
REMARK  156  A    between atoms: _357  and  _358
REMARK  157  A    between atoms: _357  and  _360
REMARK  158  A    between atoms: _360  and  _361
REMARK  159  A    between atoms: _361  and  _362
REMARK  160  A    between atoms: _362  and  _363
REMARK  161  A    between atoms: _363  and  _364
REMARK  162  A    between atoms: _368  and  _370
REMARK  163  A    between atoms: _370  and  _371
REMARK  164  A    between atoms: _370  and  _373
REMARK  165  A    between atoms: _373  and  _374
REMARK  166  A    between atoms: _374  and  _375
REMARK  167  A    between atoms: _375  and  _376
REMARK  168  A    between atoms: _376  and  _377
REMARK  169  A    between atoms: _381  and  _383
REMARK  170  A    between atoms: _383  and  _384
REMARK  171  A    between atoms: _383  and  _386
REMARK  172  A    between atoms: _386  and  _387
REMARK  173  A    between atoms: _390  and  _392
REMARK  174  A    between atoms: _392  and  _393
REMARK  175  A    between atoms: _392  and  _395
REMARK  176  A    between atoms: _395  and  _396
REMARK  177  A    between atoms: _396  and  _397
REMARK  178  A    between atoms: _397  and  _398
REMARK  179  A    between atoms: _398  and  _399
REMARK  180  A    between atoms: _404  and  _405
REMARK  181  A    between atoms: _410  and  _412
REMARK  182  A    between atoms: _412  and  _413
REMARK  183  A    between atoms: _412  and  _415
REMARK  184  A    between atoms: _415  and  _416
REMARK  185  A    between atoms: _416  and  _417
REMARK  186  A    between atoms: _422  and  _424
REMARK  187  A    between atoms: _424  and  _425
REMARK  188  A    between atoms: _424  and  _427
REMARK  189  A    between atoms: _427  and  _428
REMARK  190  A    between atoms: _433  and  _435
REMARK  191  A    between atoms: _435  and  _436
REMARK  192  A    between atoms: _435  and  _438
REMARK  193  A    between atoms: _438  and  _439
REMARK  194  A    between atoms: _442  and  _444
REMARK  195  A    between atoms: _444  and  _445
REMARK  196  A    between atoms: _444  and  _447
REMARK  197  A    between atoms: _447  and  _448
REMARK  198  A    between atoms: _451  and  _453
REMARK  199  A    between atoms: _453  and  _454
REMARK  200  A    between atoms: _453  and  _456
REMARK  201  A    between atoms: _456  and  _457
REMARK  202  A    between atoms: _460  and  _462
REMARK  203  A    between atoms: _462  and  _463
REMARK  204  A    between atoms: _462  and  _465
REMARK  205  A    between atoms: _465  and  _466
REMARK  206  A    between atoms: _469  and  _471
REMARK  207  A    between atoms: _471  and  _472
REMARK  208  A    between atoms: _475  and  _477
REMARK  209  A    between atoms: _477  and  _478
REMARK  210  A    between atoms: _477  and  _480
REMARK  211  A    between atoms: _480  and  _481
REMARK  212  A    between atoms: _484  and  _486
REMARK  213  A    between atoms: _486  and  _487
REMARK  214  A    between atoms: _486  and  _489
REMARK  215  A    between atoms: _489  and  _490
REMARK  216  A    between atoms: _496  and  _498
REMARK  217  A    between atoms: _498  and  _499
REMARK                            x       y       z     vdW  Elec       q    Type
REMARK                         _______ _______ _______ _____ _____    ______ ____
ROOT
ATOM      1  O   HOH     1       4.585  18.415  12.452  0.00  0.00    +0.000 OA
ENDROOT
TORSDOF 0
REMARK  Name = ../refined-set-2016/4bcp/4bcp_pocket.pdb
REMARK  217 active torsions:
REMARK  status: ('A' for Active; 'I' for Inactive)
REMARK    1  A    between atoms: _1  and  _3
REMARK    2  A    between atoms: _3  and  _4
REMARK    3  A    between atoms: _3  and  _6
REMARK    4  A    between atoms: _6  and  _7
REMARK    5  A    between atoms: _7  and  _8
REMARK    6  A    between atoms: _11  and  _13
REMARK    7  A    between atoms: _13  and  _14
REMARK    8  A    between atoms: _13  and  _16
REMARK    9  A    between atoms: _16  and  _17
REMARK   10  A    between atoms: _17  and  _18
REMARK   11  A    between atoms: _18  and  _19
REMARK   12  A    between atoms: _19  and  _20
REMARK   13  A    between atoms: _24  and  _26
REMARK   14  A    between atoms: _26  and  _27
REMARK   15  A    between atoms: _26  and  _29
REMARK   16  A    between atoms: _29  and  _30
REMARK   17  A    between atoms: _33  and  _35
REMARK   18  A    between atoms: _35  and  _36
REMARK   19  A    between atoms: _38  and  _40
REMARK   20  A    between atoms: _40  and  _41
REMARK   21  A    between atoms: _40  and  _43
REMARK   22  A    between atoms: _43  and  _44
REMARK   23  A    between atoms: _44  and  _45
REMARK   24  A    between atoms: _48  and  _50
REMARK   25  A    between atoms: _50  and  _51
REMARK   26  A    between atoms: _53  and  _55
REMARK   27  A    between atoms: _55  and  _56
REMARK   28  A    between atoms: _55  and  _58
REMARK   29  A    between atoms: _58  and  _59
REMARK   30  A    between atoms: _62  and  _64
REMARK   31  A    between atoms: _64  and  _65
REMARK   32  A    between atoms: _64  and  _67
REMARK   33  A    between atoms: _67  and  _68
REMARK   34  A    between atoms: _73  and  _74
REMARK   35  A    between atoms: _76  and  _78
REMARK   36  A    between atoms: _78  and  _79
REMARK   37  A    between atoms: _81  and  _83
REMARK   38  A    between atoms: _83  and  _84
REMARK   39  A    between atoms: _83  and  _86
REMARK   40  A    between atoms: _89  and  _91
REMARK   41  A    between atoms: _91  and  _92
REMARK   42  A    between atoms: _91  and  _94
REMARK   43  A    between atoms: _97  and  _99
REMARK   44  A    between atoms: _99  and  _100
REMARK   45  A    between atoms: _99  and  _102
REMARK   46  A    between atoms: _102  and  _103
REMARK   47  A    between atoms: _108  and  _109
REMARK   48  A    between atoms: _111  and  _113
REMARK   49  A    between atoms: _113  and  _114
REMARK   50  A    between atoms: _113  and  _116
REMARK   51  A    between atoms: _116  and  _117
REMARK   52  A    between atoms: _117  and  _118
REMARK   53  A    between atoms: _118  and  _119
REMARK   54  A    between atoms: _119  and  _120
REMARK   55  A    between atoms: _124  and  _126
REMARK   56  A    between atoms: _126  and  _127
REMARK   57  A    between atoms: _130  and  _132
REMARK   58  A    between atoms: _132  and  _133
REMARK   59  A    between atoms: _132  and  _135
REMARK   60  A    between atoms: _138  and  _140
REMARK   61  A    between atoms: _140  and  _141
REMARK   62  A    between atoms: _140  and  _143
REMARK   63  A    between atoms: _146  and  _148
REMARK   64  A    between atoms: _148  and  _149
REMARK   65  A    between atoms: _152  and  _154
REMARK   66  A    between atoms: _154  and  _155
REMARK   67  A    between atoms: _154  and  _157
REMARK   68  A    between atoms: _157  and  _158
REMARK   69  A    between atoms: _161  and  _163
REMARK   70  A    between atoms: _163  and  _164
REMARK   71  A    between atoms: _163  and  _166
REMARK   72  A    between atoms: _166  and  _167
REMARK   73  A    between atoms: _167  and  _168
REMARK   74  A    between atoms: _168  and  _169
REMARK   75  A    between atoms: _169  and  _170
REMARK   76  A    between atoms: _174  and  _176
REMARK   77  A    between atoms: _176  and  _177
REMARK   78  A    between atoms: _176  and  _179
REMARK   79  A    between atoms: _179  and  _180
REMARK   80  A    between atoms: _180  and  _181
REMARK   81  A    between atoms: _181  and  _182
REMARK   82  A    between atoms: _182  and  _183
REMARK   83  A    between atoms: _187  and  _189
REMARK   84  A    between atoms: _189  and  _190
REMARK   85  A    between atoms: _189  and  _192
REMARK   86  A    between atoms: _192  and  _193
REMARK   87  A    between atoms: _193  and  _194
REMARK   88  A    between atoms: _197  and  _199
REMARK   89  A    between atoms: _199  and  _200
REMARK   90  A    between atoms: _199  and  _202
REMARK   91  A    between atoms: _202  and  _203
REMARK   92  A    between atoms: _206  and  _208
REMARK   93  A    between atoms: _208  and  _209
REMARK   94  A    between atoms: _208  and  _211
REMARK   95  A    between atoms: _211  and  _212
REMARK   96  A    between atoms: _215  and  _217
REMARK   97  A    between atoms: _217  and  _218
REMARK   98  A    between atoms: _217  and  _220
REMARK   99  A    between atoms: _223  and  _225
REMARK  100  A    between atoms: _225  and  _226
REMARK  101  A    between atoms: _225  and  _228
REMARK  102  A    between atoms: _228  and  _229
REMARK  103  A    between atoms: _229  and  _230
REMARK  104  A    between atoms: _230  and  _231
REMARK  105  A    between atoms: _231  and  _232
REMARK  106  A    between atoms: _236  and  _238
REMARK  107  A    between atoms: _238  and  _239
REMARK  108  A    between atoms: _238  and  _241
REMARK  109  A    between atoms: _241  and  _242
REMARK  110  A    between atoms: _245  and  _247
REMARK  111  A    between atoms: _247  and  _248
REMARK  112  A    between atoms: _247  and  _250
REMARK  113  A    between atoms: _250  and  _251
REMARK  114  A    between atoms: _254  and  _256
REMARK  115  A    between atoms: _256  and  _257
REMARK  116  A    between atoms: _256  and  _259
REMARK  117  A    between atoms: _259  and  _260
REMARK  118  A    between atoms: _263  and  _265
REMARK  119  A    between atoms: _265  and  _266
REMARK  120  A    between atoms: _265  and  _268
REMARK  121  A    between atoms: _271  and  _273
REMARK  122  A    between atoms: _273  and  _274
REMARK  123  A    between atoms: _273  and  _276
REMARK  124  A    between atoms: _276  and  _277
REMARK  125  A    between atoms: _283  and  _285
REMARK  126  A    between atoms: _285  and  _286
REMARK  127  A    between atoms: _285  and  _288
REMARK  128  A    between atoms: _288  and  _289
REMARK  129  A    between atoms: _289  and  _290
REMARK  130  A    between atoms: _293  and  _295
REMARK  131  A    between atoms: _295  and  _296
REMARK  132  A    between atoms: _295  and  _298
REMARK  133  A    between atoms: _298  and  _299
REMARK  134  A    between atoms: _305  and  _307
REMARK  135  A    between atoms: _307  and  _308
REMARK  136  A    between atoms: _307  and  _310
REMARK  137  A    between atoms: _310  and  _311
REMARK  138  A    between atoms: _314  and  _316
REMARK  139  A    between atoms: _316  and  _317
REMARK  140  A    between atoms: _316  and  _319
REMARK  141  A    between atoms: _319  and  _320
REMARK  142  A    between atoms: _325  and  _327
REMARK  143  A    between atoms: _327  and  _328
REMARK  144  A    between atoms: _327  and  _330
REMARK  145  A    between atoms: _330  and  _331
REMARK  146  A    between atoms: _331  and  _332
REMARK  147  A    between atoms: _337  and  _339
REMARK  148  A    between atoms: _339  and  _340
REMARK  149  A    between atoms: _339  and  _342
REMARK  150  A    between atoms: _342  and  _343
REMARK  151  A    between atoms: _346  and  _348
REMARK  152  A    between atoms: _348  and  _349
REMARK  153  A    between atoms: _348  and  _351
REMARK  154  A    between atoms: _351  and  _352
REMARK  155  A    between atoms: _355  and  _357
REMARK  156  A    between atoms: _357  and  _358
REMARK  157  A    between atoms: _357  and  _360
REMARK  158  A    between atoms: _360  and  _361
REMARK  159  A    between atoms: _361  and  _362
REMARK  160  A    between atoms: _362  and  _363
REMARK  161  A    between atoms: _363  and  _364
REMARK  162  A    between atoms: _368  and  _370
REMARK  163  A    between atoms: _370  and  _371
REMARK  164  A    between atoms: _370  and  _373
REMARK  165  A    between atoms: _373  and  _374
REMARK  166  A    between atoms: _374  and  _375
REMARK  167  A    between atoms: _375  and  _376
REMARK  168  A    between atoms: _376  and  _377
REMARK  169  A    between atoms: _381  and  _383
REMARK  170  A    between atoms: _383  and  _384
REMARK  171  A    between atoms: _383  and  _386
REMARK  172  A    between atoms: _386  and  _387
REMARK  173  A    between atoms: _390  and  _392
REMARK  174  A    between atoms: _392  and  _393
REMARK  175  A    between atoms: _392  and  _395
REMARK  176  A    between atoms: _395  and  _396
REMARK  177  A    between atoms: _396  and  _397
REMARK  178  A    between atoms: _397  and  _398
REMARK  179  A    between atoms: _398  and  _399
REMARK  180  A    between atoms: _404  and  _405
REMARK  181  A    between atoms: _410  and  _412
REMARK  182  A    between atoms: _412  and  _413
REMARK  183  A    between atoms: _412  and  _415
REMARK  184  A    between atoms: _415  and  _416
REMARK  185  A    between atoms: _416  and  _417
REMARK  186  A    between atoms: _422  and  _424
REMARK  187  A    between atoms: _424  and  _425
REMARK  188  A    between atoms: _424  and  _427
REMARK  189  A    between atoms: _427  and  _428
REMARK  190  A    between atoms: _433  and  _435
REMARK  191  A    between atoms: _435  and  _436
REMARK  192  A    between atoms: _435  and  _438
REMARK  193  A    between atoms: _438  and  _439
REMARK  194  A    between atoms: _442  and  _444
REMARK  195  A    between atoms: _444  and  _445
REMARK  196  A    between atoms: _444  and  _447
REMARK  197  A    between atoms: _447  and  _448
REMARK  198  A    between atoms: _451  and  _453
REMARK  199  A    between atoms: _453  and  _454
REMARK  200  A    between atoms: _453  and  _456
REMARK  201  A    between atoms: _456  and  _457
REMARK  202  A    between atoms: _460  and  _462
REMARK  203  A    between atoms: _462  and  _463
REMARK  204  A    between atoms: _462  and  _465
REMARK  205  A    between atoms: _465  and  _466
REMARK  206  A    between atoms: _469  and  _471
REMARK  207  A    between atoms: _471  and  _472
REMARK  208  A    between atoms: _475  and  _477
REMARK  209  A    between atoms: _477  and  _478
REMARK  210  A    between atoms: _477  and  _480
REMARK  211  A    between atoms: _480  and  _481
REMARK  212  A    between atoms: _484  and  _486
REMARK  213  A    between atoms: _486  and  _487
REMARK  214  A    between atoms: _486  and  _489
REMARK  215  A    between atoms: _489  and  _490
REMARK  216  A    between atoms: _496  and  _498
REMARK  217  A    between atoms: _498  and  _499
REMARK                            x       y       z     vdW  Elec       q    Type
REMARK                         _______ _______ _______ _____ _____    ______ ____
ROOT
ATOM      1  O   HOH     1       2.219  20.657  15.920  0.00  0.00    +0.000 OA
ENDROOT
TORSDOF 0
REMARK  Name = ../refined-set-2016/4bcp/4bcp_pocket.pdb
REMARK  217 active torsions:
REMARK  status: ('A' for Active; 'I' for Inactive)
REMARK    1  A    between atoms: _1  and  _3
REMARK    2  A    between atoms: _3  and  _4
REMARK    3  A    between atoms: _3  and  _6
REMARK    4  A    between atoms: _6  and  _7
REMARK    5  A    between atoms: _7  and  _8
REMARK    6  A    between atoms: _11  and  _13
REMARK    7  A    between atoms: _13  and  _14
REMARK    8  A    between atoms: _13  and  _16
REMARK    9  A    between atoms: _16  and  _17
REMARK   10  A    between atoms: _17  and  _18
REMARK   11  A    between atoms: _18  and  _19
REMARK   12  A    between atoms: _19  and  _20
REMARK   13  A    between atoms: _24  and  _26
REMARK   14  A    between atoms: _26  and  _27
REMARK   15  A    between atoms: _26  and  _29
REMARK   16  A    between atoms: _29  and  _30
REMARK   17  A    between atoms: _33  and  _35
REMARK   18  A    between atoms: _35  and  _36
REMARK   19  A    between atoms: _38  and  _40
REMARK   20  A    between atoms: _40  and  _41
REMARK   21  A    between atoms: _40  and  _43
REMARK   22  A    between atoms: _43  and  _44
REMARK   23  A    between atoms: _44  and  _45
REMARK   24  A    between atoms: _48  and  _50
REMARK   25  A    between atoms: _50  and  _51
REMARK   26  A    between atoms: _53  and  _55
REMARK   27  A    between atoms: _55  and  _56
REMARK   28  A    between atoms: _55  and  _58
REMARK   29  A    between atoms: _58  and  _59
REMARK   30  A    between atoms: _62  and  _64
REMARK   31  A    between atoms: _64  and  _65
REMARK   32  A    between atoms: _64  and  _67
REMARK   33  A    between atoms: _67  and  _68
REMARK   34  A    between atoms: _73  and  _74
REMARK   35  A    between atoms: _76  and  _78
REMARK   36  A    between atoms: _78  and  _79
REMARK   37  A    between atoms: _81  and  _83
REMARK   38  A    between atoms: _83  and  _84
REMARK   39  A    between atoms: _83  and  _86
REMARK   40  A    between atoms: _89  and  _91
REMARK   41  A    between atoms: _91  and  _92
REMARK   42  A    between atoms: _91  and  _94
REMARK   43  A    between atoms: _97  and  _99
REMARK   44  A    between atoms: _99  and  _100
REMARK   45  A    between atoms: _99  and  _102
REMARK   46  A    between atoms: _102  and  _103
REMARK   47  A    between atoms: _108  and  _109
REMARK   48  A    between atoms: _111  and  _113
REMARK   49  A    between atoms: _113  and  _114
REMARK   50  A    between atoms: _113  and  _116
REMARK   51  A    between atoms: _116  and  _117
REMARK   52  A    between atoms: _117  and  _118
REMARK   53  A    between atoms: _118  and  _119
REMARK   54  A    between atoms: _119  and  _120
REMARK   55  A    between atoms: _124  and  _126
REMARK   56  A    between atoms: _126  and  _127
REMARK   57  A    between atoms: _130  and  _132
REMARK   58  A    between atoms: _132  and  _133
REMARK   59  A    between atoms: _132  and  _135
REMARK   60  A    between atoms: _138  and  _140
REMARK   61  A    between atoms: _140  and  _141
REMARK   62  A    between atoms: _140  and  _143
REMARK   63  A    between atoms: _146  and  _148
REMARK   64  A    between atoms: _148  and  _149
REMARK   65  A    between atoms: _152  and  _154
REMARK   66  A    between atoms: _154  and  _155
REMARK   67  A    between atoms: _154  and  _157
REMARK   68  A    between atoms: _157  and  _158
REMARK   69  A    between atoms: _161  and  _163
REMARK   70  A    between atoms: _163  and  _164
REMARK   71  A    between atoms: _163  and  _166
REMARK   72  A    between atoms: _166  and  _167
REMARK   73  A    between atoms: _167  and  _168
REMARK   74  A    between atoms: _168  and  _169
REMARK   75  A    between atoms: _169  and  _170
REMARK   76  A    between atoms: _174  and  _176
REMARK   77  A    between atoms: _176  and  _177
REMARK   78  A    between atoms: _176  and  _179
REMARK   79  A    between atoms: _179  and  _180
REMARK   80  A    between atoms: _180  and  _181
REMARK   81  A    between atoms: _181  and  _182
REMARK   82  A    between atoms: _182  and  _183
REMARK   83  A    between atoms: _187  and  _189
REMARK   84  A    between atoms: _189  and  _190
REMARK   85  A    between atoms: _189  and  _192
REMARK   86  A    between atoms: _192  and  _193
REMARK   87  A    between atoms: _193  and  _194
REMARK   88  A    between atoms: _197  and  _199
REMARK   89  A    between atoms: _199  and  _200
REMARK   90  A    between atoms: _199  and  _202
REMARK   91  A    between atoms: _202  and  _203
REMARK   92  A    between atoms: _206  and  _208
REMARK   93  A    between atoms: _208  and  _209
REMARK   94  A    between atoms: _208  and  _211
REMARK   95  A    between atoms: _211  and  _212
REMARK   96  A    between atoms: _215  and  _217
REMARK   97  A    between atoms: _217  and  _218
REMARK   98  A    between atoms: _217  and  _220
REMARK   99  A    between atoms: _223  and  _225
REMARK  100  A    between atoms: _225  and  _226
REMARK  101  A    between atoms: _225  and  _228
REMARK  102  A    between atoms: _228  and  _229
REMARK  103  A    between atoms: _229  and  _230
REMARK  104  A    between atoms: _230  and  _231
REMARK  105  A    between atoms: _231  and  _232
REMARK  106  A    between atoms: _236  and  _238
REMARK  107  A    between atoms: _238  and  _239
REMARK  108  A    between atoms: _238  and  _241
REMARK  109  A    between atoms: _241  and  _242
REMARK  110  A    between atoms: _245  and  _247
REMARK  111  A    between atoms: _247  and  _248
REMARK  112  A    between atoms: _247  and  _250
REMARK  113  A    between atoms: _250  and  _251
REMARK  114  A    between atoms: _254  and  _256
REMARK  115  A    between atoms: _256  and  _257
REMARK  116  A    between atoms: _256  and  _259
REMARK  117  A    between atoms: _259  and  _260
REMARK  118  A    between atoms: _263  and  _265
REMARK  119  A    between atoms: _265  and  _266
REMARK  120  A    between atoms: _265  and  _268
REMARK  121  A    between atoms: _271  and  _273
REMARK  122  A    between atoms: _273  and  _274
REMARK  123  A    between atoms: _273  and  _276
REMARK  124  A    between atoms: _276  and  _277
REMARK  125  A    between atoms: _283  and  _285
REMARK  126  A    between atoms: _285  and  _286
REMARK  127  A    between atoms: _285  and  _288
REMARK  128  A    between atoms: _288  and  _289
REMARK  129  A    between atoms: _289  and  _290
REMARK  130  A    between atoms: _293  and  _295
REMARK  131  A    between atoms: _295  and  _296
REMARK  132  A    between atoms: _295  and  _298
REMARK  133  A    between atoms: _298  and  _299
REMARK  134  A    between atoms: _305  and  _307
REMARK  135  A    between atoms: _307  and  _308
REMARK  136  A    between atoms: _307  and  _310
REMARK  137  A    between atoms: _310  and  _311
REMARK  138  A    between atoms: _314  and  _316
REMARK  139  A    between atoms: _316  and  _317
REMARK  140  A    between atoms: _316  and  _319
REMARK  141  A    between atoms: _319  and  _320
REMARK  142  A    between atoms: _325  and  _327
REMARK  143  A    between atoms: _327  and  _328
REMARK  144  A    between atoms: _327  and  _330
REMARK  145  A    between atoms: _330  and  _331
REMARK  146  A    between atoms: _331  and  _332
REMARK  147  A    between atoms: _337  and  _339
REMARK  148  A    between atoms: _339  and  _340
REMARK  149  A    between atoms: _339  and  _342
REMARK  150  A    between atoms: _342  and  _343
REMARK  151  A    between atoms: _346  and  _348
REMARK  152  A    between atoms: _348  and  _349
REMARK  153  A    between atoms: _348  and  _351
REMARK  154  A    between atoms: _351  and  _352
REMARK  155  A    between atoms: _355  and  _357
REMARK  156  A    between atoms: _357  and  _358
REMARK  157  A    between atoms: _357  and  _360
REMARK  158  A    between atoms: _360  and  _361
REMARK  159  A    between atoms: _361  and  _362
REMARK  160  A    between atoms: _362  and  _363
REMARK  161  A    between atoms: _363  and  _364
REMARK  162  A    between atoms: _368  and  _370
REMARK  163  A    between atoms: _370  and  _371
REMARK  164  A    between atoms: _370  and  _373
REMARK  165  A    between atoms: _373  and  _374
REMARK  166  A    between atoms: _374  and  _375
REMARK  167  A    between atoms: _375  and  _376
REMARK  168  A    between atoms: _376  and  _377
REMARK  169  A    between atoms: _381  and  _383
REMARK  170  A    between atoms: _383  and  _384
REMARK  171  A    between atoms: _383  and  _386
REMARK  172  A    between atoms: _386  and  _387
REMARK  173  A    between atoms: _390  and  _392
REMARK  174  A    between atoms: _392  and  _393
REMARK  175  A    between atoms: _392  and  _395
REMARK  176  A    between atoms: _395  and  _396
REMARK  177  A    between atoms: _396  and  _397
REMARK  178  A    between atoms: _397  and  _398
REMARK  179  A    between atoms: _398  and  _399
REMARK  180  A    between atoms: _404  and  _405
REMARK  181  A    between atoms: _410  and  _412
REMARK  182  A    between atoms: _412  and  _413
REMARK  183  A    between atoms: _412  and  _415
REMARK  184  A    between atoms: _415  and  _416
REMARK  185  A    between atoms: _416  and  _417
REMARK  186  A    between atoms: _422  and  _424
REMARK  187  A    between atoms: _424  and  _425
REMARK  188  A    between atoms: _424  and  _427
REMARK  189  A    between atoms: _427  and  _428
REMARK  190  A    between atoms: _433  and  _435
REMARK  191  A    between atoms: _435  and  _436
REMARK  192  A    between atoms: _435  and  _438
REMARK  193  A    between atoms: _438  and  _439
REMARK  194  A    between atoms: _442  and  _444
REMARK  195  A    between atoms: _444  and  _445
REMARK  196  A    between atoms: _444  and  _447
REMARK  197  A    between atoms: _447  and  _448
REMARK  198  A    between atoms: _451  and  _453
REMARK  199  A    between atoms: _453  and  _454
REMARK  200  A    between atoms: _453  and  _456
REMARK  201  A    between atoms: _456  and  _457
REMARK  202  A    between atoms: _460  and  _462
REMARK  203  A    between atoms: _462  and  _463
REMARK  204  A    between atoms: _462  and  _465
REMARK  205  A    between atoms: _465  and  _466
REMARK  206  A    between atoms: _469  and  _471
REMARK  207  A    between atoms: _471  and  _472
REMARK  208  A    between atoms: _475  and  _477
REMARK  209  A    between atoms: _477  and  _478
REMARK  210  A    between atoms: _477  and  _480
REMARK  211  A    between atoms: _480  and  _481
REMARK  212  A    between atoms: _484  and  _486
REMARK  213  A    between atoms: _486  and  _487
REMARK  214  A    between atoms: _486  and  _489
REMARK  215  A    between atoms: _489  and  _490
REMARK  216  A    between atoms: _496  and  _498
REMARK  217  A    between atoms: _498  and  _499
REMARK                            x       y       z     vdW  Elec       q    Type
REMARK                         _______ _______ _______ _____ _____    ______ ____
ROOT
ATOM      1  O   HOH     1      16.385  23.071  28.332  0.00  0.00    +0.000 OA
ENDROOT
TORSDOF 0
REMARK  Name = ../refined-set-2016/4bcp/4bcp_pocket.pdb
REMARK  217 active torsions:
REMARK  status: ('A' for Active; 'I' for Inactive)
REMARK    1  A    between atoms: _1  and  _3
REMARK    2  A    between atoms: _3  and  _4
REMARK    3  A    between atoms: _3  and  _6
REMARK    4  A    between atoms: _6  and  _7
REMARK    5  A    between atoms: _7  and  _8
REMARK    6  A    between atoms: _11  and  _13
REMARK    7  A    between atoms: _13  and  _14
REMARK    8  A    between atoms: _13  and  _16
REMARK    9  A    between atoms: _16  and  _17
REMARK   10  A    between atoms: _17  and  _18
REMARK   11  A    between atoms: _18  and  _19
REMARK   12  A    between atoms: _19  and  _20
REMARK   13  A    between atoms: _24  and  _26
REMARK   14  A    between atoms: _26  and  _27
REMARK   15  A    between atoms: _26  and  _29
REMARK   16  A    between atoms: _29  and  _30
REMARK   17  A    between atoms: _33  and  _35
REMARK   18  A    between atoms: _35  and  _36
REMARK   19  A    between atoms: _38  and  _40
REMARK   20  A    between atoms: _40  and  _41
REMARK   21  A    between atoms: _40  and  _43
REMARK   22  A    between atoms: _43  and  _44
REMARK   23  A    between atoms: _44  and  _45
REMARK   24  A    between atoms: _48  and  _50
REMARK   25  A    between atoms: _50  and  _51
REMARK   26  A    between atoms: _53  and  _55
REMARK   27  A    between atoms: _55  and  _56
REMARK   28  A    between atoms: _55  and  _58
REMARK   29  A    between atoms: _58  and  _59
REMARK   30  A    between atoms: _62  and  _64
REMARK   31  A    between atoms: _64  and  _65
REMARK   32  A    between atoms: _64  and  _67
REMARK   33  A    between atoms: _67  and  _68
REMARK   34  A    between atoms: _73  and  _74
REMARK   35  A    between atoms: _76  and  _78
REMARK   36  A    between atoms: _78  and  _79
REMARK   37  A    between atoms: _81  and  _83
REMARK   38  A    between atoms: _83  and  _84
REMARK   39  A    between atoms: _83  and  _86
REMARK   40  A    between atoms: _89  and  _91
REMARK   41  A    between atoms: _91  and  _92
REMARK   42  A    between atoms: _91  and  _94
REMARK   43  A    between atoms: _97  and  _99
REMARK   44  A    between atoms: _99  and  _100
REMARK   45  A    between atoms: _99  and  _102
REMARK   46  A    between atoms: _102  and  _103
REMARK   47  A    between atoms: _108  and  _109
REMARK   48  A    between atoms: _111  and  _113
REMARK   49  A    between atoms: _113  and  _114
REMARK   50  A    between atoms: _113  and  _116
REMARK   51  A    between atoms: _116  and  _117
REMARK   52  A    between atoms: _117  and  _118
REMARK   53  A    between atoms: _118  and  _119
REMARK   54  A    between atoms: _119  and  _120
REMARK   55  A    between atoms: _124  and  _126
REMARK   56  A    between atoms: _126  and  _127
REMARK   57  A    between atoms: _130  and  _132
REMARK   58  A    between atoms: _132  and  _133
REMARK   59  A    between atoms: _132  and  _135
REMARK   60  A    between atoms: _138  and  _140
REMARK   61  A    between atoms: _140  and  _141
REMARK   62  A    between atoms: _140  and  _143
REMARK   63  A    between atoms: _146  and  _148
REMARK   64  A    between atoms: _148  and  _149
REMARK   65  A    between atoms: _152  and  _154
REMARK   66  A    between atoms: _154  and  _155
REMARK   67  A    between atoms: _154  and  _157
REMARK   68  A    between atoms: _157  and  _158
REMARK   69  A    between atoms: _161  and  _163
REMARK   70  A    between atoms: _163  and  _164
REMARK   71  A    between atoms: _163  and  _166
REMARK   72  A    between atoms: _166  and  _167
REMARK   73  A    between atoms: _167  and  _168
REMARK   74  A    between atoms: _168  and  _169
REMARK   75  A    between atoms: _169  and  _170
REMARK   76  A    between atoms: _174  and  _176
REMARK   77  A    between atoms: _176  and  _177
REMARK   78  A    between atoms: _176  and  _179
REMARK   79  A    between atoms: _179  and  _180
REMARK   80  A    between atoms: _180  and  _181
REMARK   81  A    between atoms: _181  and  _182
REMARK   82  A    between atoms: _182  and  _183
REMARK   83  A    between atoms: _187  and  _189
REMARK   84  A    between atoms: _189  and  _190
REMARK   85  A    between atoms: _189  and  _192
REMARK   86  A    between atoms: _192  and  _193
REMARK   87  A    between atoms: _193  and  _194
REMARK   88  A    between atoms: _197  and  _199
REMARK   89  A    between atoms: _199  and  _200
REMARK   90  A    between atoms: _199  and  _202
REMARK   91  A    between atoms: _202  and  _203
REMARK   92  A    between atoms: _206  and  _208
REMARK   93  A    between atoms: _208  and  _209
REMARK   94  A    between atoms: _208  and  _211
REMARK   95  A    between atoms: _211  and  _212
REMARK   96  A    between atoms: _215  and  _217
REMARK   97  A    between atoms: _217  and  _218
REMARK   98  A    between atoms: _217  and  _220
REMARK   99  A    between atoms: _223  and  _225
REMARK  100  A    between atoms: _225  and  _226
REMARK  101  A    between atoms: _225  and  _228
REMARK  102  A    between atoms: _228  and  _229
REMARK  103  A    between atoms: _229  and  _230
REMARK  104  A    between atoms: _230  and  _231
REMARK  105  A    between atoms: _231  and  _232
REMARK  106  A    between atoms: _236  and  _238
REMARK  107  A    between atoms: _238  and  _239
REMARK  108  A    between atoms: _238  and  _241
REMARK  109  A    between atoms: _241  and  _242
REMARK  110  A    between atoms: _245  and  _247
REMARK  111  A    between atoms: _247  and  _248
REMARK  112  A    between atoms: _247  and  _250
REMARK  113  A    between atoms: _250  and  _251
REMARK  114  A    between atoms: _254  and  _256
REMARK  115  A    between atoms: _256  and  _257
REMARK  116  A    between atoms: _256  and  _259
REMARK  117  A    between atoms: _259  and  _260
REMARK  118  A    between atoms: _263  and  _265
REMARK  119  A    between atoms: _265  and  _266
REMARK  120  A    between atoms: _265  and  _268
REMARK  121  A    between atoms: _271  and  _273
REMARK  122  A    between atoms: _273  and  _274
REMARK  123  A    between atoms: _273  and  _276
REMARK  124  A    between atoms: _276  and  _277
REMARK  125  A    between atoms: _283  and  _285
REMARK  126  A    between atoms: _285  and  _286
REMARK  127  A    between atoms: _285  and  _288
REMARK  128  A    between atoms: _288  and  _289
REMARK  129  A    between atoms: _289  and  _290
REMARK  130  A    between atoms: _293  and  _295
REMARK  131  A    between atoms: _295  and  _296
REMARK  132  A    between atoms: _295  and  _298
REMARK  133  A    between atoms: _298  and  _299
REMARK  134  A    between atoms: _305  and  _307
REMARK  135  A    between atoms: _307  and  _308
REMARK  136  A    between atoms: _307  and  _310
REMARK  137  A    between atoms: _310  and  _311
REMARK  138  A    between atoms: _314  and  _316
REMARK  139  A    between atoms: _316  and  _317
REMARK  140  A    between atoms: _316  and  _319
REMARK  141  A    between atoms: _319  and  _320
REMARK  142  A    between atoms: _325  and  _327
REMARK  143  A    between atoms: _327  and  _328
REMARK  144  A    between atoms: _327  and  _330
REMARK  145  A    between atoms: _330  and  _331
REMARK  146  A    between atoms: _331  and  _332
REMARK  147  A    between atoms: _337  and  _339
REMARK  148  A    between atoms: _339  and  _340
REMARK  149  A    between atoms: _339  and  _342
REMARK  150  A    between atoms: _342  and  _343
REMARK  151  A    between atoms: _346  and  _348
REMARK  152  A    between atoms: _348  and  _349
REMARK  153  A    between atoms: _348  and  _351
REMARK  154  A    between atoms: _351  and  _352
REMARK  155  A    between atoms: _355  and  _357
REMARK  156  A    between atoms: _357  and  _358
REMARK  157  A    between atoms: _357  and  _360
REMARK  158  A    between atoms: _360  and  _361
REMARK  159  A    between atoms: _361  and  _362
REMARK  160  A    between atoms: _362  and  _363
REMARK  161  A    between atoms: _363  and  _364
REMARK  162  A    between atoms: _368  and  _370
REMARK  163  A    between atoms: _370  and  _371
REMARK  164  A    between atoms: _370  and  _373
REMARK  165  A    between atoms: _373  and  _374
REMARK  166  A    between atoms: _374  and  _375
REMARK  167  A    between atoms: _375  and  _376
REMARK  168  A    between atoms: _376  and  _377
REMARK  169  A    between atoms: _381  and  _383
REMARK  170  A    between atoms: _383  and  _384
REMARK  171  A    between atoms: _383  and  _386
REMARK  172  A    between atoms: _386  and  _387
REMARK  173  A    between atoms: _390  and  _392
REMARK  174  A    between atoms: _392  and  _393
REMARK  175  A    between atoms: _392  and  _395
REMARK  176  A    between atoms: _395  and  _396
REMARK  177  A    between atoms: _396  and  _397
REMARK  178  A    between atoms: _397  and  _398
REMARK  179  A    between atoms: _398  and  _399
REMARK  180  A    between atoms: _404  and  _405
REMARK  181  A    between atoms: _410  and  _412
REMARK  182  A    between atoms: _412  and  _413
REMARK  183  A    between atoms: _412  and  _415
REMARK  184  A    between atoms: _415  and  _416
REMARK  185  A    between atoms: _416  and  _417
REMARK  186  A    between atoms: _422  and  _424
REMARK  187  A    between atoms: _424  and  _425
REMARK  188  A    between atoms: _424  and  _427
REMARK  189  A    between atoms: _427  and  _428
REMARK  190  A    between atoms: _433  and  _435
REMARK  191  A    between atoms: _435  and  _436
REMARK  192  A    between atoms: _435  and  _438
REMARK  193  A    between atoms: _438  and  _439
REMARK  194  A    between atoms: _442  and  _444
REMARK  195  A    between atoms: _444  and  _445
REMARK  196  A    between atoms: _444  and  _447
REMARK  197  A    between atoms: _447  and  _448
REMARK  198  A    between atoms: _451  and  _453
REMARK  199  A    between atoms: _453  and  _454
REMARK  200  A    between atoms: _453  and  _456
REMARK  201  A    between atoms: _456  and  _457
REMARK  202  A    between atoms: _460  and  _462
REMARK  203  A    between atoms: _462  and  _463
REMARK  204  A    between atoms: _462  and  _465
REMARK  205  A    between atoms: _465  and  _466
REMARK  206  A    between atoms: _469  and  _471
REMARK  207  A    between atoms: _471  and  _472
REMARK  208  A    between atoms: _475  and  _477
REMARK  209  A    between atoms: _477  and  _478
REMARK  210  A    between atoms: _477  and  _480
REMARK  211  A    between atoms: _480  and  _481
REMARK  212  A    between atoms: _484  and  _486
REMARK  213  A    between atoms: _486  and  _487
REMARK  214  A    between atoms: _486  and  _489
REMARK  215  A    between atoms: _489  and  _490
REMARK  216  A    between atoms: _496  and  _498
REMARK  217  A    between atoms: _498  and  _499
REMARK                            x       y       z     vdW  Elec       q    Type
REMARK                         _______ _______ _______ _____ _____    ______ ____
ROOT
ATOM      1  O   HOH     1      10.145  18.925  18.226  0.00  0.00    +0.000 OA
ENDROOT
TORSDOF 0
