REMARK  Name = ../refined-set-2016/3d2e/3d2e_pocket.pdb
REMARK  263 active torsions:
REMARK  status: ('A' for Active; 'I' for Inactive)
REMARK    1  A    between atoms: _1  and  _3
REMARK    2  A    between atoms: _3  and  _4
REMARK    3  A    between atoms: _3  and  _6
REMARK    4  A    between atoms: _6  and  _7
REMARK    5  A    between atoms: _10  and  _12
REMARK    6  A    between atoms: _12  and  _13
REMARK    7  A    between atoms: _12  and  _15
REMARK    8  A    between atoms: _15  and  _16
REMARK    9  A    between atoms: _19  and  _21
REMARK   10  A    between atoms: _21  and  _22
REMARK   11  A    between atoms: _24  and  _26
REMARK   12  A    between atoms: _26  and  _27
REMARK   13  A    between atoms: _26  and  _29
REMARK   14  A    between atoms: _29  and  _30
REMARK   15  A    between atoms: _35  and  _37
REMARK   16  A    between atoms: _37  and  _38
REMARK   17  A    between atoms: _37  and  _40
REMARK   18  A    between atoms: _40  and  _41
REMARK   19  A    between atoms: _46  and  _48
REMARK   20  A    between atoms: _48  and  _49
REMARK   21  A    between atoms: _48  and  _51
REMARK   22  A    between atoms: _51  and  _52
REMARK   23  A    between atoms: _57  and  _59
REMARK   24  A    between atoms: _59  and  _60
REMARK   25  A    between atoms: _59  and  _62
REMARK   26  A    between atoms: _62  and  _63
REMARK   27  A    between atoms: _65  and  _67
REMARK   28  A    between atoms: _67  and  _68
REMARK   29  A    between atoms: _67  and  _70
REMARK   30  A    between atoms: _73  and  _75
REMARK   31  A    between atoms: _75  and  _76
REMARK   32  A    between atoms: _75  and  _78
REMARK   33  A    between atoms: _78  and  _79
REMARK   34  A    between atoms: _81  and  _83
REMARK   35  A    between atoms: _83  and  _84
REMARK   36  A    between atoms: _83  and  _86
REMARK   37  A    between atoms: _86  and  _87
REMARK   38  A    between atoms: _90  and  _92
REMARK   39  A    between atoms: _92  and  _93
REMARK   40  A    between atoms: _92  and  _95
REMARK   41  A    between atoms: _95  and  _96
REMARK   42  A    between atoms: _98  and  _100
REMARK   43  A    between atoms: _100  and  _101
REMARK   44  A    between atoms: _100  and  _103
REMARK   45  A    between atoms: _103  and  _104
REMARK   46  A    between atoms: _104  and  _105
REMARK   47  A    between atoms: _105  and  _106
REMARK   48  A    between atoms: _106  and  _107
REMARK   49  A    between atoms: _111  and  _113
REMARK   50  A    between atoms: _113  and  _114
REMARK   51  A    between atoms: _113  and  _116
REMARK   52  A    between atoms: _116  and  _117
REMARK   53  A    between atoms: _117  and  _118
REMARK   54  A    between atoms: _118  and  _119
REMARK   55  A    between atoms: _128  and  _130
REMARK   56  A    between atoms: _130  and  _131
REMARK   57  A    between atoms: _134  and  _136
REMARK   58  A    between atoms: _136  and  _137
REMARK   59  A    between atoms: _136  and  _139
REMARK   60  A    between atoms: _143  and  _144
REMARK   61  A    between atoms: _149  and  _151
REMARK   62  A    between atoms: _151  and  _152
REMARK   63  A    between atoms: _151  and  _154
REMARK   64  A    between atoms: _154  and  _155
REMARK   65  A    between atoms: _165  and  _167
REMARK   66  A    between atoms: _167  and  _168
REMARK   67  A    between atoms: _167  and  _170
REMARK   68  A    between atoms: _170  and  _171
REMARK   69  A    between atoms: _174  and  _176
REMARK   70  A    between atoms: _176  and  _177
REMARK   71  A    between atoms: _176  and  _179
REMARK   72  A    between atoms: _179  and  _180
REMARK   73  A    between atoms: _183  and  _185
REMARK   74  A    between atoms: _185  and  _186
REMARK   75  A    between atoms: _185  and  _188
REMARK   76  A    between atoms: _188  and  _189
REMARK   77  A    between atoms: _192  and  _194
REMARK   78  A    between atoms: _194  and  _195
REMARK   79  A    between atoms: _197  and  _199
REMARK   80  A    between atoms: _199  and  _200
REMARK   81  A    between atoms: _199  and  _202
REMARK   82  A    between atoms: _202  and  _203
REMARK   83  A    between atoms: _208  and  _210
REMARK   84  A    between atoms: _210  and  _211
REMARK   85  A    between atoms: _210  and  _213
REMARK   86  A    between atoms: _213  and  _214
REMARK   87  A    between atoms: _216  and  _218
REMARK   88  A    between atoms: _218  and  _219
REMARK   89  A    between atoms: _218  and  _221
REMARK   90  A    between atoms: _221  and  _222
REMARK   91  A    between atoms: _224  and  _226
REMARK   92  A    between atoms: _226  and  _227
REMARK   93  A    between atoms: _226  and  _229
REMARK   94  A    between atoms: _229  and  _230
REMARK   95  A    between atoms: _235  and  _236
REMARK   96  A    between atoms: _238  and  _240
REMARK   97  A    between atoms: _240  and  _241
REMARK   98  A    between atoms: _240  and  _243
REMARK   99  A    between atoms: _243  and  _244
REMARK  100  A    between atoms: _247  and  _249
REMARK  101  A    between atoms: _249  and  _250
REMARK  102  A    between atoms: _249  and  _252
REMARK  103  A    between atoms: _252  and  _253
REMARK  104  A    between atoms: _256  and  _258
REMARK  105  A    between atoms: _258  and  _259
REMARK  106  A    between atoms: _258  and  _261
REMARK  107  A    between atoms: _261  and  _262
REMARK  108  A    between atoms: _262  and  _263
REMARK  109  A    between atoms: _263  and  _264
REMARK  110  A    between atoms: _264  and  _265
REMARK  111  A    between atoms: _269  and  _271
REMARK  112  A    between atoms: _271  and  _272
REMARK  113  A    between atoms: _271  and  _274
REMARK  114  A    between atoms: _274  and  _275
REMARK  115  A    between atoms: _281  and  _283
REMARK  116  A    between atoms: _283  and  _284
REMARK  117  A    between atoms: _286  and  _288
REMARK  118  A    between atoms: _288  and  _289
REMARK  119  A    between atoms: _291  and  _293
REMARK  120  A    between atoms: _293  and  _294
REMARK  121  A    between atoms: _293  and  _296
REMARK  122  A    between atoms: _296  and  _297
REMARK  123  A    between atoms: _297  and  _298
REMARK  124  A    between atoms: _298  and  _299
REMARK  125  A    between atoms: _308  and  _310
REMARK  126  A    between atoms: _310  and  _311
REMARK  127  A    between atoms: _310  and  _313
REMARK  128  A    between atoms: _313  and  _314
REMARK  129  A    between atoms: _317  and  _319
REMARK  130  A    between atoms: _319  and  _320
REMARK  131  A    between atoms: _319  and  _322
REMARK  132  A    between atoms: _322  and  _323
REMARK  133  A    between atoms: _329  and  _331
REMARK  134  A    between atoms: _331  and  _332
REMARK  135  A    between atoms: _331  and  _334
REMARK  136  A    between atoms: _334  and  _335
REMARK  137  A    between atoms: _338  and  _340
REMARK  138  A    between atoms: _340  and  _341
REMARK  139  A    between atoms: _344  and  _346
REMARK  140  A    between atoms: _346  and  _347
REMARK  141  A    between atoms: _346  and  _349
REMARK  142  A    between atoms: _349  and  _350
REMARK  143  A    between atoms: _350  and  _351
REMARK  144  A    between atoms: _354  and  _356
REMARK  145  A    between atoms: _356  and  _357
REMARK  146  A    between atoms: _356  and  _359
REMARK  147  A    between atoms: _359  and  _360
REMARK  148  A    between atoms: _360  and  _361
REMARK  149  A    between atoms: _361  and  _362
REMARK  150  A    between atoms: _362  and  _363
REMARK  151  A    between atoms: _367  and  _369
REMARK  152  A    between atoms: _369  and  _370
REMARK  153  A    between atoms: _369  and  _372
REMARK  154  A    between atoms: _372  and  _373
REMARK  155  A    between atoms: _376  and  _378
REMARK  156  A    between atoms: _378  and  _379
REMARK  157  A    between atoms: _378  and  _381
REMARK  158  A    between atoms: _381  and  _382
REMARK  159  A    between atoms: _382  and  _383
REMARK  160  A    between atoms: _383  and  _384
REMARK  161  A    between atoms: _384  and  _385
REMARK  162  A    between atoms: _389  and  _391
REMARK  163  A    between atoms: _391  and  _392
REMARK  164  A    between atoms: _391  and  _394
REMARK  165  A    between atoms: _394  and  _395
REMARK  166  A    between atoms: _395  and  _396
REMARK  167  A    between atoms: _396  and  _397
REMARK  168  A    between atoms: _397  and  _398
REMARK  169  A    between atoms: _402  and  _404
REMARK  170  A    between atoms: _404  and  _405
REMARK  171  A    between atoms: _404  and  _407
REMARK  172  A    between atoms: _410  and  _412
REMARK  173  A    between atoms: _412  and  _413
REMARK  174  A    between atoms: _412  and  _415
REMARK  175  A    between atoms: _415  and  _416
REMARK  176  A    between atoms: _419  and  _421
REMARK  177  A    between atoms: _421  and  _422
REMARK  178  A    between atoms: _421  and  _424
REMARK  179  A    between atoms: _424  and  _425
REMARK  180  A    between atoms: _427  and  _429
REMARK  181  A    between atoms: _429  and  _430
REMARK  182  A    between atoms: _433  and  _435
REMARK  183  A    between atoms: _435  and  _436
REMARK  184  A    between atoms: _435  and  _438
REMARK  185  A    between atoms: _438  and  _439
REMARK  186  A    between atoms: _442  and  _444
REMARK  187  A    between atoms: _444  and  _445
REMARK  188  A    between atoms: _444  and  _447
REMARK  189  A    between atoms: _447  and  _448
REMARK  190  A    between atoms: _451  and  _453
REMARK  191  A    between atoms: _453  and  _454
REMARK  192  A    between atoms: _456  and  _458
REMARK  193  A    between atoms: _458  and  _459
REMARK  194  A    between atoms: _461  and  _463
REMARK  195  A    between atoms: _463  and  _464
REMARK  196  A    between atoms: _463  and  _466
REMARK  197  A    between atoms: _466  and  _467
REMARK  198  A    between atoms: _470  and  _472
REMARK  199  A    between atoms: _472  and  _473
REMARK  200  A    between atoms: _472  and  _475
REMARK  201  A    between atoms: _475  and  _476
REMARK  202  A    between atoms: _479  and  _481
REMARK  203  A    between atoms: _481  and  _482
REMARK  204  A    between atoms: _481  and  _484
REMARK  205  A    between atoms: _484  and  _485
REMARK  206  A    between atoms: _485  and  _486
REMARK  207  A    between atoms: _486  and  _487
REMARK  208  A    between atoms: _496  and  _498
REMARK  209  A    between atoms: _498  and  _499
REMARK  210  A    between atoms: _498  and  _501
REMARK  211  A    between atoms: _501  and  _502
REMARK  212  A    between atoms: _506  and  _507
REMARK  213  A    between atoms: _512  and  _514
REMARK  214  A    between atoms: _514  and  _515
REMARK  215  A    between atoms: _514  and  _517
REMARK  216  A    between atoms: _517  and  _518
REMARK  217  A    between atoms: _521  and  _523
REMARK  218  A    between atoms: _523  and  _524
REMARK  219  A    between atoms: _523  and  _526
REMARK  220  A    between atoms: _526  and  _527
REMARK  221  A    between atoms: _527  and  _528
REMARK  222  A    between atoms: _528  and  _529
REMARK  223  A    between atoms: _529  and  _530
REMARK  224  A    between atoms: _534  and  _536
REMARK  225  A    between atoms: _536  and  _537
REMARK  226  A    between atoms: _536  and  _539
REMARK  227  A    between atoms: _539  and  _540
REMARK  228  A    between atoms: _540  and  _541
REMARK  229  A    between atoms: _546  and  _548
REMARK  230  A    between atoms: _548  and  _549
REMARK  231  A    between atoms: _548  and  _551
REMARK  232  A    between atoms: _551  and  _552
REMARK  233  A    between atoms: _555  and  _557
REMARK  234  A    between atoms: _557  and  _558
REMARK  235  A    between atoms: _557  and  _560
REMARK  236  A    between atoms: _560  and  _561
REMARK  237  A    between atoms: _564  and  _566
REMARK  238  A    between atoms: _566  and  _567
REMARK  239  A    between atoms: _566  and  _569
REMARK  240  A    between atoms: _569  and  _570
REMARK  241  A    between atoms: _575  and  _577
REMARK  242  A    between atoms: _577  and  _578
REMARK  243  A    between atoms: _577  and  _580
REMARK  244  A    between atoms: _580  and  _581
REMARK  245  A    between atoms: _584  and  _586
REMARK  246  A    between atoms: _586  and  _587
REMARK  247  A    between atoms: _586  and  _589
REMARK  248  A    between atoms: _589  and  _590
REMARK  249  A    between atoms: _590  and  _591
REMARK  250  A    between atoms: _596  and  _598
REMARK  251  A    between atoms: _598  and  _599
REMARK  252  A    between atoms: _601  and  _603
REMARK  253  A    between atoms: _603  and  _604
REMARK  254  A    between atoms: _603  and  _606
REMARK  255  A    between atoms: _606  and  _607
REMARK  256  A    between atoms: _612  and  _614
REMARK  257  A    between atoms: _614  and  _615
REMARK  258  A    between atoms: _614  and  _617
REMARK  259  A    between atoms: _617  and  _618
REMARK  260  A    between atoms: _621  and  _623
REMARK  261  A    between atoms: _623  and  _624
REMARK  262  A    between atoms: _623  and  _626
REMARK  263  A    between atoms: _626  and  _627
REMARK                            x       y       z     vdW  Elec       q    Type
REMARK                         _______ _______ _______ _____ _____    ______ ____
ROOT
ATOM      1  C   ASN A   4      92.350  78.925 184.227  0.00  0.00    +0.241 C 
ATOM      2  O   ASN A   4      93.516  79.293 184.416  0.00  0.00    -0.273 OA
ATOM      3  N   ASN A   5      91.375  79.748 183.870  0.00  0.00    -0.297 N 
ATOM      4  H   ASN A   5      90.418  79.358 183.754  0.00  0.00    +0.150 HD
ENDROOT
BRANCH   3   5
ATOM      5  CA  ASN A   5      91.574  81.161 183.633  0.00  0.00    +0.158 C 
BRANCH   5   6
ATOM      6  C   ASN A   5      91.034  81.951 184.827  0.00  0.00    +0.241 C 
ATOM      7  O   ASN A   5      91.747  82.779 185.438  0.00  0.00    -0.273 OA
ATOM      8  N   ASN A   6      89.778  81.673 185.193  0.00  0.00    -0.297 N 
ATOM      9  H   ASN A   6      89.217  80.977 184.661  0.00  0.00    +0.150 HD
BRANCH   8  10
ATOM     10  CA  ASN A   6      89.203  82.356 186.346  0.00  0.00    +0.158 C 
BRANCH  10  11
ATOM     11  C   ASN A   6      88.359  81.472 187.238  0.00  0.00    +0.241 C 
ATOM     12  N   SER A   7      88.247  81.857 188.511  0.00  0.00    -0.295 N 
ATOM     13  H   SER A   7      88.730  82.723 188.825  0.00  0.00    +0.150 HD
ATOM     14  O   ASN A   6      87.826  80.453 186.785  0.00  0.00    -0.273 OA
BRANCH  12  15
ATOM     15  CA  SER A   7      87.467  81.095 189.466  0.00  0.00    +0.178 C 
BRANCH  15  16
ATOM     16  C   SER A   7      86.280  81.876 190.013  0.00  0.00    +0.243 C 
ATOM     17  O   SER A   7      86.384  83.070 190.289  0.00  0.00    -0.273 OA
ATOM     18  N   VAL A   8      85.147  81.193 190.146  0.00  0.00    -0.298 N 
ATOM     19  H   VAL A   8      85.126  80.188 189.878  0.00  0.00    +0.150 HD
BRANCH  18  20
ATOM     20  CA  VAL A   8      83.934  81.816 190.658  0.00  0.00    +0.137 C 
BRANCH  20  21
ATOM     21  CB  VAL A   8      82.745  81.703 189.640  0.00  0.00    +0.026 C 
ATOM     22  CG2 VAL A   8      81.486  82.410 190.138  0.00  0.00    +0.002 C 
ATOM     23  CG1 VAL A   8      83.177  82.294 188.263  0.00  0.00    +0.002 C 
ENDBRANCH  20  21
BRANCH  20  24
ATOM     24  C   VAL A   8      83.620  81.309 192.074  0.00  0.00    +0.227 C 
ATOM     25  O   VAL A   8      83.749  80.138 192.377  0.00  0.00    -0.286 OA
ENDBRANCH  20  24
ENDBRANCH  18  20
ENDBRANCH  15  16
BRANCH  15  26
ATOM     26  CB  SER A   7      88.356  80.574 190.589  0.00  0.00    +0.166 C 
BRANCH  26  27
ATOM     27  OG  SER A   7      89.313  79.672 190.057  0.00  0.00    -0.380 OA
ATOM     28  H   SER A   7      89.870  80.141 189.386  0.00  0.00    +0.211 HD
ENDBRANCH  26  27
ENDBRANCH  15  26
ENDBRANCH  12  15
ENDBRANCH  10  11
BRANCH  10  29
ATOM     29  CB  ASN A   6      88.430  83.583 185.895  0.00  0.00    +0.114 C 
BRANCH  29  30
ATOM     30  CG  ASN A   6      87.369  83.254 184.859  0.00  0.00    +0.222 C 
ATOM     31  ND2 ASN A   6      86.200  82.816 185.327  0.00  0.00    -0.329 N 
ATOM     32 HD21 ASN A   6      86.054  82.719 186.352  0.00  0.00    +0.145 HD
ATOM     33 HD22 ASN A   6      85.434  82.572 184.667  0.00  0.00    +0.145 HD
ATOM     34  OD1 ASN A   6      87.600  83.390 183.644  0.00  0.00    -0.275 OA
ENDBRANCH  29  30
ENDBRANCH  10  29
ENDBRANCH   8  10
ENDBRANCH   5   6
BRANCH   5  35
ATOM     35  CB  ASN A   5      90.845  81.525 182.316  0.00  0.00    +0.114 C 
BRANCH  35  36
ATOM     36  CG  ASN A   5      90.929  82.998 181.971  0.00  0.00    +0.222 C 
ATOM     37  OD1 ASN A   5      89.932  83.704 182.013  0.00  0.00    -0.275 OA
ATOM     38  ND2 ASN A   5      92.102  83.455 181.619  0.00  0.00    -0.329 N 
ATOM     39 HD21 ASN A   5      92.923  82.817 181.598  0.00  0.00    +0.145 HD
ATOM     40 HD22 ASN A   5      92.214  84.456 181.360  0.00  0.00    +0.145 HD
ENDBRANCH  35  36
ENDBRANCH   5  35
ENDBRANCH   3   5
BRANCH   1  41
ATOM     41  CA  ASN A   4      91.932  77.460 184.384  0.00  0.00    +0.158 C 
BRANCH  41  44
ATOM     42  C   GLY A   3      90.119  77.685 186.003  0.00  0.00    +0.243 C 
ATOM     43  O   GLY A   3      90.854  78.202 186.864  0.00  0.00    -0.273 OA
ATOM     44  N   ASN A   4      90.548  77.305 184.803  0.00  0.00    -0.297 N 
ATOM     45  H   ASN A   4      89.868  76.881 184.139  0.00  0.00    +0.150 HD
BRANCH  42  46
ATOM     46  CA  GLY A   3      88.659  77.448 186.276  0.00  0.00    +0.176 C 
BRANCH  46  49
ATOM     47  C   LEU A   2      88.469  76.222 188.372  0.00  0.00    +0.241 C 
ATOM     48  O   LEU A   2      88.829  75.137 187.869  0.00  0.00    -0.273 OA
ATOM     49  N   GLY A   3      88.416  77.368 187.700  0.00  0.00    -0.295 N 
ATOM     50  H   GLY A   3      88.191  78.241 188.218  0.00  0.00    +0.150 HD
BRANCH  47  51
ATOM     51  CA  LEU A   2      88.057  76.308 189.840  0.00  0.00    +0.149 C 
BRANCH  51  53
ATOM     52  C   ASP A   1      85.786  77.014 189.962  0.00  0.00    +0.239 C 
ATOM     53  N   LEU A   2      86.648  76.009 189.964  0.00  0.00    -0.297 N 
ATOM     54  H   LEU A   2      86.319  75.026 190.053  0.00  0.00    +0.150 HD
ATOM     55  O   ASP A   1      86.153  78.161 189.790  0.00  0.00    -0.274 OA
BRANCH  52  56
ATOM     56  CA  ASP A   1      84.325  76.694 190.248  0.00  0.00    +0.156 C 
BRANCH  56  57
ATOM     57  N   ASP A   1      84.100  77.095 191.628  0.00  0.00    -0.238 NA
ATOM     58  H   ASP A   1      83.795  78.066 191.844  0.00  0.00    +0.142 HD
ENDBRANCH  56  57
BRANCH  56  59
ATOM     59  CB  ASP A   1      83.390  77.469 189.334  0.00  0.00    +0.140 C 
BRANCH  59  60
ATOM     60  CG  ASP A   1      83.762  77.361 187.873  0.00  0.00    +0.367 C 
ATOM     61  OD2 ASP A   1      84.626  76.549 187.504  0.00  0.00    -0.246 OA
ATOM     62  OD1 ASP A   1      83.178  78.105 187.076  0.00  0.00    -0.246 OA
ENDBRANCH  59  60
ENDBRANCH  56  59
ENDBRANCH  52  56
ENDBRANCH  51  53
BRANCH  51  63
ATOM     63  CB  LEU A   2      88.886  75.381 190.721  0.00  0.00    +0.029 C 
BRANCH  63  64
ATOM     64  CG  LEU A   2      90.244  75.769 191.315  0.00  0.00    +0.002 C 
ATOM     65  CD2 LEU A   2      91.006  74.491 191.504  0.00  0.00    +0.000 C 
ATOM     66  CD1 LEU A   2      91.071  76.704 190.494  0.00  0.00    +0.000 C 
ENDBRANCH  63  64
ENDBRANCH  51  63
ENDBRANCH  47  51
ENDBRANCH  46  49
ENDBRANCH  42  46
ENDBRANCH  41  44
BRANCH  41  67
ATOM     67  CB  ASN A   4      92.140  76.714 183.080  0.00  0.00    +0.114 C 
BRANCH  67  68
ATOM     68  CG  ASN A   4      93.580  76.428 182.813  0.00  0.00    +0.222 C 
ATOM     69  ND2 ASN A   4      94.233  75.761 183.757  0.00  0.00    -0.329 N 
ATOM     70 HD21 ASN A   4      93.729  75.435 184.607  0.00  0.00    +0.145 HD
ATOM     71 HD22 ASN A   4      95.248  75.564 183.647  0.00  0.00    +0.145 HD
ATOM     72  OD1 ASN A   4      94.127  76.840 181.781  0.00  0.00    -0.275 OA
ENDBRANCH  67  68
ENDBRANCH  41  67
ENDBRANCH   1  41
TORSDOF 29
REMARK  Name = ../refined-set-2016/3d2e/3d2e_pocket.pdb
REMARK  263 active torsions:
REMARK  status: ('A' for Active; 'I' for Inactive)
REMARK    1  A    between atoms: _1  and  _3
REMARK    2  A    between atoms: _3  and  _4
REMARK    3  A    between atoms: _3  and  _6
REMARK    4  A    between atoms: _6  and  _7
REMARK    5  A    between atoms: _10  and  _12
REMARK    6  A    between atoms: _12  and  _13
REMARK    7  A    between atoms: _12  and  _15
REMARK    8  A    between atoms: _15  and  _16
REMARK    9  A    between atoms: _19  and  _21
REMARK   10  A    between atoms: _21  and  _22
REMARK   11  A    between atoms: _24  and  _26
REMARK   12  A    between atoms: _26  and  _27
REMARK   13  A    between atoms: _26  and  _29
REMARK   14  A    between atoms: _29  and  _30
REMARK   15  A    between atoms: _35  and  _37
REMARK   16  A    between atoms: _37  and  _38
REMARK   17  A    between atoms: _37  and  _40
REMARK   18  A    between atoms: _40  and  _41
REMARK   19  A    between atoms: _46  and  _48
REMARK   20  A    between atoms: _48  and  _49
REMARK   21  A    between atoms: _48  and  _51
REMARK   22  A    between atoms: _51  and  _52
REMARK   23  A    between atoms: _57  and  _59
REMARK   24  A    between atoms: _59  and  _60
REMARK   25  A    between atoms: _59  and  _62
REMARK   26  A    between atoms: _62  and  _63
REMARK   27  A    between atoms: _65  and  _67
REMARK   28  A    between atoms: _67  and  _68
REMARK   29  A    between atoms: _67  and  _70
REMARK   30  A    between atoms: _73  and  _75
REMARK   31  A    between atoms: _75  and  _76
REMARK   32  A    between atoms: _75  and  _78
REMARK   33  A    between atoms: _78  and  _79
REMARK   34  A    between atoms: _81  and  _83
REMARK   35  A    between atoms: _83  and  _84
REMARK   36  A    between atoms: _83  and  _86
REMARK   37  A    between atoms: _86  and  _87
REMARK   38  A    between atoms: _90  and  _92
REMARK   39  A    between atoms: _92  and  _93
REMARK   40  A    between atoms: _92  and  _95
REMARK   41  A    between atoms: _95  and  _96
REMARK   42  A    between atoms: _98  and  _100
REMARK   43  A    between atoms: _100  and  _101
REMARK   44  A    between atoms: _100  and  _103
REMARK   45  A    between atoms: _103  and  _104
REMARK   46  A    between atoms: _104  and  _105
REMARK   47  A    between atoms: _105  and  _106
REMARK   48  A    between atoms: _106  and  _107
REMARK   49  A    between atoms: _111  and  _113
REMARK   50  A    between atoms: _113  and  _114
REMARK   51  A    between atoms: _113  and  _116
REMARK   52  A    between atoms: _116  and  _117
REMARK   53  A    between atoms: _117  and  _118
REMARK   54  A    between atoms: _118  and  _119
REMARK   55  A    between atoms: _128  and  _130
REMARK   56  A    between atoms: _130  and  _131
REMARK   57  A    between atoms: _134  and  _136
REMARK   58  A    between atoms: _136  and  _137
REMARK   59  A    between atoms: _136  and  _139
REMARK   60  A    between atoms: _143  and  _144
REMARK   61  A    between atoms: _149  and  _151
REMARK   62  A    between atoms: _151  and  _152
REMARK   63  A    between atoms: _151  and  _154
REMARK   64  A    between atoms: _154  and  _155
REMARK   65  A    between atoms: _165  and  _167
REMARK   66  A    between atoms: _167  and  _168
REMARK   67  A    between atoms: _167  and  _170
REMARK   68  A    between atoms: _170  and  _171
REMARK   69  A    between atoms: _174  and  _176
REMARK   70  A    between atoms: _176  and  _177
REMARK   71  A    between atoms: _176  and  _179
REMARK   72  A    between atoms: _179  and  _180
REMARK   73  A    between atoms: _183  and  _185
REMARK   74  A    between atoms: _185  and  _186
REMARK   75  A    between atoms: _185  and  _188
REMARK   76  A    between atoms: _188  and  _189
REMARK   77  A    between atoms: _192  and  _194
REMARK   78  A    between atoms: _194  and  _195
REMARK   79  A    between atoms: _197  and  _199
REMARK   80  A    between atoms: _199  and  _200
REMARK   81  A    between atoms: _199  and  _202
REMARK   82  A    between atoms: _202  and  _203
REMARK   83  A    between atoms: _208  and  _210
REMARK   84  A    between atoms: _210  and  _211
REMARK   85  A    between atoms: _210  and  _213
REMARK   86  A    between atoms: _213  and  _214
REMARK   87  A    between atoms: _216  and  _218
REMARK   88  A    between atoms: _218  and  _219
REMARK   89  A    between atoms: _218  and  _221
REMARK   90  A    between atoms: _221  and  _222
REMARK   91  A    between atoms: _224  and  _226
REMARK   92  A    between atoms: _226  and  _227
REMARK   93  A    between atoms: _226  and  _229
REMARK   94  A    between atoms: _229  and  _230
REMARK   95  A    between atoms: _235  and  _236
REMARK   96  A    between atoms: _238  and  _240
REMARK   97  A    between atoms: _240  and  _241
REMARK   98  A    between atoms: _240  and  _243
REMARK   99  A    between atoms: _243  and  _244
REMARK  100  A    between atoms: _247  and  _249
REMARK  101  A    between atoms: _249  and  _250
REMARK  102  A    between atoms: _249  and  _252
REMARK  103  A    between atoms: _252  and  _253
REMARK  104  A    between atoms: _256  and  _258
REMARK  105  A    between atoms: _258  and  _259
REMARK  106  A    between atoms: _258  and  _261
REMARK  107  A    between atoms: _261  and  _262
REMARK  108  A    between atoms: _262  and  _263
REMARK  109  A    between atoms: _263  and  _264
REMARK  110  A    between atoms: _264  and  _265
REMARK  111  A    between atoms: _269  and  _271
REMARK  112  A    between atoms: _271  and  _272
REMARK  113  A    between atoms: _271  and  _274
REMARK  114  A    between atoms: _274  and  _275
REMARK  115  A    between atoms: _281  and  _283
REMARK  116  A    between atoms: _283  and  _284
REMARK  117  A    between atoms: _286  and  _288
REMARK  118  A    between atoms: _288  and  _289
REMARK  119  A    between atoms: _291  and  _293
REMARK  120  A    between atoms: _293  and  _294
REMARK  121  A    between atoms: _293  and  _296
REMARK  122  A    between atoms: _296  and  _297
REMARK  123  A    between atoms: _297  and  _298
REMARK  124  A    between atoms: _298  and  _299
REMARK  125  A    between atoms: _308  and  _310
REMARK  126  A    between atoms: _310  and  _311
REMARK  127  A    between atoms: _310  and  _313
REMARK  128  A    between atoms: _313  and  _314
REMARK  129  A    between atoms: _317  and  _319
REMARK  130  A    between atoms: _319  and  _320
REMARK  131  A    between atoms: _319  and  _322
REMARK  132  A    between atoms: _322  and  _323
REMARK  133  A    between atoms: _329  and  _331
REMARK  134  A    between atoms: _331  and  _332
REMARK  135  A    between atoms: _331  and  _334
REMARK  136  A    between atoms: _334  and  _335
REMARK  137  A    between atoms: _338  and  _340
REMARK  138  A    between atoms: _340  and  _341
REMARK  139  A    between atoms: _344  and  _346
REMARK  140  A    between atoms: _346  and  _347
REMARK  141  A    between atoms: _346  and  _349
REMARK  142  A    between atoms: _349  and  _350
REMARK  143  A    between atoms: _350  and  _351
REMARK  144  A    between atoms: _354  and  _356
REMARK  145  A    between atoms: _356  and  _357
REMARK  146  A    between atoms: _356  and  _359
REMARK  147  A    between atoms: _359  and  _360
REMARK  148  A    between atoms: _360  and  _361
REMARK  149  A    between atoms: _361  and  _362
REMARK  150  A    between atoms: _362  and  _363
REMARK  151  A    between atoms: _367  and  _369
REMARK  152  A    between atoms: _369  and  _370
REMARK  153  A    between atoms: _369  and  _372
REMARK  154  A    between atoms: _372  and  _373
REMARK  155  A    between atoms: _376  and  _378
REMARK  156  A    between atoms: _378  and  _379
REMARK  157  A    between atoms: _378  and  _381
REMARK  158  A    between atoms: _381  and  _382
REMARK  159  A    between atoms: _382  and  _383
REMARK  160  A    between atoms: _383  and  _384
REMARK  161  A    between atoms: _384  and  _385
REMARK  162  A    between atoms: _389  and  _391
REMARK  163  A    between atoms: _391  and  _392
REMARK  164  A    between atoms: _391  and  _394
REMARK  165  A    between atoms: _394  and  _395
REMARK  166  A    between atoms: _395  and  _396
REMARK  167  A    between atoms: _396  and  _397
REMARK  168  A    between atoms: _397  and  _398
REMARK  169  A    between atoms: _402  and  _404
REMARK  170  A    between atoms: _404  and  _405
REMARK  171  A    between atoms: _404  and  _407
REMARK  172  A    between atoms: _410  and  _412
REMARK  173  A    between atoms: _412  and  _413
REMARK  174  A    between atoms: _412  and  _415
REMARK  175  A    between atoms: _415  and  _416
REMARK  176  A    between atoms: _419  and  _421
REMARK  177  A    between atoms: _421  and  _422
REMARK  178  A    between atoms: _421  and  _424
REMARK  179  A    between atoms: _424  and  _425
REMARK  180  A    between atoms: _427  and  _429
REMARK  181  A    between atoms: _429  and  _430
REMARK  182  A    between atoms: _433  and  _435
REMARK  183  A    between atoms: _435  and  _436
REMARK  184  A    between atoms: _435  and  _438
REMARK  185  A    between atoms: _438  and  _439
REMARK  186  A    between atoms: _442  and  _444
REMARK  187  A    between atoms: _444  and  _445
REMARK  188  A    between atoms: _444  and  _447
REMARK  189  A    between atoms: _447  and  _448
REMARK  190  A    between atoms: _451  and  _453
REMARK  191  A    between atoms: _453  and  _454
REMARK  192  A    between atoms: _456  and  _458
REMARK  193  A    between atoms: _458  and  _459
REMARK  194  A    between atoms: _461  and  _463
REMARK  195  A    between atoms: _463  and  _464
REMARK  196  A    between atoms: _463  and  _466
REMARK  197  A    between atoms: _466  and  _467
REMARK  198  A    between atoms: _470  and  _472
REMARK  199  A    between atoms: _472  and  _473
REMARK  200  A    between atoms: _472  and  _475
REMARK  201  A    between atoms: _475  and  _476
REMARK  202  A    between atoms: _479  and  _481
REMARK  203  A    between atoms: _481  and  _482
REMARK  204  A    between atoms: _481  and  _484
REMARK  205  A    between atoms: _484  and  _485
REMARK  206  A    between atoms: _485  and  _486
REMARK  207  A    between atoms: _486  and  _487
REMARK  208  A    between atoms: _496  and  _498
REMARK  209  A    between atoms: _498  and  _499
REMARK  210  A    between atoms: _498  and  _501
REMARK  211  A    between atoms: _501  and  _502
REMARK  212  A    between atoms: _506  and  _507
REMARK  213  A    between atoms: _512  and  _514
REMARK  214  A    between atoms: _514  and  _515
REMARK  215  A    between atoms: _514  and  _517
REMARK  216  A    between atoms: _517  and  _518
REMARK  217  A    between atoms: _521  and  _523
REMARK  218  A    between atoms: _523  and  _524
REMARK  219  A    between atoms: _523  and  _526
REMARK  220  A    between atoms: _526  and  _527
REMARK  221  A    between atoms: _527  and  _528
REMARK  222  A    between atoms: _528  and  _529
REMARK  223  A    between atoms: _529  and  _530
REMARK  224  A    between atoms: _534  and  _536
REMARK  225  A    between atoms: _536  and  _537
REMARK  226  A    between atoms: _536  and  _539
REMARK  227  A    between atoms: _539  and  _540
REMARK  228  A    between atoms: _540  and  _541
REMARK  229  A    between atoms: _546  and  _548
REMARK  230  A    between atoms: _548  and  _549
REMARK  231  A    between atoms: _548  and  _551
REMARK  232  A    between atoms: _551  and  _552
REMARK  233  A    between atoms: _555  and  _557
REMARK  234  A    between atoms: _557  and  _558
REMARK  235  A    between atoms: _557  and  _560
REMARK  236  A    between atoms: _560  and  _561
REMARK  237  A    between atoms: _564  and  _566
REMARK  238  A    between atoms: _566  and  _567
REMARK  239  A    between atoms: _566  and  _569
REMARK  240  A    between atoms: _569  and  _570
REMARK  241  A    between atoms: _575  and  _577
REMARK  242  A    between atoms: _577  and  _578
REMARK  243  A    between atoms: _577  and  _580
REMARK  244  A    between atoms: _580  and  _581
REMARK  245  A    between atoms: _584  and  _586
REMARK  246  A    between atoms: _586  and  _587
REMARK  247  A    between atoms: _586  and  _589
REMARK  248  A    between atoms: _589  and  _590
REMARK  249  A    between atoms: _590  and  _591
REMARK  250  A    between atoms: _596  and  _598
REMARK  251  A    between atoms: _598  and  _599
REMARK  252  A    between atoms: _601  and  _603
REMARK  253  A    between atoms: _603  and  _604
REMARK  254  A    between atoms: _603  and  _606
REMARK  255  A    between atoms: _606  and  _607
REMARK  256  A    between atoms: _612  and  _614
REMARK  257  A    between atoms: _614  and  _615
REMARK  258  A    between atoms: _614  and  _617
REMARK  259  A    between atoms: _617  and  _618
REMARK  260  A    between atoms: _621  and  _623
REMARK  261  A    between atoms: _623  and  _624
REMARK  262  A    between atoms: _623  and  _626
REMARK  263  A    between atoms: _626  and  _627
REMARK                            x       y       z     vdW  Elec       q    Type
REMARK                         _______ _______ _______ _____ _____    ______ ____
ROOT
ATOM      1  C   SER A   1      86.941  86.480 189.579  0.00  0.00    +0.241 C 
ATOM      2  N   THR A   2      87.757  85.524 190.027  0.00  0.00    -0.296 N 
ATOM      3  H   THR A   2      87.397  84.562 190.189  0.00  0.00    +0.150 HD
ATOM      4  O   SER A   1      87.249  87.681 189.601  0.00  0.00    -0.274 OA
ENDROOT
BRANCH   1   5
ATOM      5  CA  SER A   1      85.559  86.037 189.131  0.00  0.00    +0.174 C 
BRANCH   5   6
ATOM      6  N   SER A   1      84.631  87.160 189.231  0.00  0.00    -0.236 NA
ATOM      7  H   SER A   1      84.923  88.080 188.844  0.00  0.00    +0.142 HD
ENDBRANCH   5   6
BRANCH   5   8
ATOM      8  CB  SER A   1      85.601  85.450 187.730  0.00  0.00    +0.163 C 
BRANCH   8   9
ATOM      9  OG  SER A   1      85.931  86.449 186.776  0.00  0.00    -0.380 OA
ATOM     10  H   SER A   1      86.820  86.828 186.991  0.00  0.00    +0.211 HD
ENDBRANCH   8   9
ENDBRANCH   5   8
ENDBRANCH   1   5
BRANCH   2  11
ATOM     11  CA  THR A   2      89.149  85.836 190.287  0.00  0.00    +0.164 C 
BRANCH  11  12
ATOM     12  CB  THR A   2      89.541  85.971 191.805  0.00  0.00    +0.136 C 
ATOM     13  CG2 THR A   2      88.458  85.616 192.717  0.00  0.00    +0.034 C 
BRANCH  12  14
ATOM     14  OG1 THR A   2      90.735  85.237 192.102  0.00  0.00    -0.382 OA
ATOM     15  HG1 THR A   2      90.955  85.341 193.062  0.00  0.00    +0.210 HD
ENDBRANCH  12  14
ENDBRANCH  11  12
BRANCH  11  16
ATOM     16  C   THR A   2      90.095  85.005 189.455  0.00  0.00    +0.229 C 
ATOM     17  O   THR A   2      89.877  83.803 189.275  0.00  0.00    -0.286 OA
ENDBRANCH  11  16
ENDBRANCH   2  11
TORSDOF 8
REMARK  Name = ../refined-set-2016/3d2e/3d2e_pocket.pdb
REMARK  263 active torsions:
REMARK  status: ('A' for Active; 'I' for Inactive)
REMARK    1  A    between atoms: _1  and  _3
REMARK    2  A    between atoms: _3  and  _4
REMARK    3  A    between atoms: _3  and  _6
REMARK    4  A    between atoms: _6  and  _7
REMARK    5  A    between atoms: _10  and  _12
REMARK    6  A    between atoms: _12  and  _13
REMARK    7  A    between atoms: _12  and  _15
REMARK    8  A    between atoms: _15  and  _16
REMARK    9  A    between atoms: _19  and  _21
REMARK   10  A    between atoms: _21  and  _22
REMARK   11  A    between atoms: _24  and  _26
REMARK   12  A    between atoms: _26  and  _27
REMARK   13  A    between atoms: _26  and  _29
REMARK   14  A    between atoms: _29  and  _30
REMARK   15  A    between atoms: _35  and  _37
REMARK   16  A    between atoms: _37  and  _38
REMARK   17  A    between atoms: _37  and  _40
REMARK   18  A    between atoms: _40  and  _41
REMARK   19  A    between atoms: _46  and  _48
REMARK   20  A    between atoms: _48  and  _49
REMARK   21  A    between atoms: _48  and  _51
REMARK   22  A    between atoms: _51  and  _52
REMARK   23  A    between atoms: _57  and  _59
REMARK   24  A    between atoms: _59  and  _60
REMARK   25  A    between atoms: _59  and  _62
REMARK   26  A    between atoms: _62  and  _63
REMARK   27  A    between atoms: _65  and  _67
REMARK   28  A    between atoms: _67  and  _68
REMARK   29  A    between atoms: _67  and  _70
REMARK   30  A    between atoms: _73  and  _75
REMARK   31  A    between atoms: _75  and  _76
REMARK   32  A    between atoms: _75  and  _78
REMARK   33  A    between atoms: _78  and  _79
REMARK   34  A    between atoms: _81  and  _83
REMARK   35  A    between atoms: _83  and  _84
REMARK   36  A    between atoms: _83  and  _86
REMARK   37  A    between atoms: _86  and  _87
REMARK   38  A    between atoms: _90  and  _92
REMARK   39  A    between atoms: _92  and  _93
REMARK   40  A    between atoms: _92  and  _95
REMARK   41  A    between atoms: _95  and  _96
REMARK   42  A    between atoms: _98  and  _100
REMARK   43  A    between atoms: _100  and  _101
REMARK   44  A    between atoms: _100  and  _103
REMARK   45  A    between atoms: _103  and  _104
REMARK   46  A    between atoms: _104  and  _105
REMARK   47  A    between atoms: _105  and  _106
REMARK   48  A    between atoms: _106  and  _107
REMARK   49  A    between atoms: _111  and  _113
REMARK   50  A    between atoms: _113  and  _114
REMARK   51  A    between atoms: _113  and  _116
REMARK   52  A    between atoms: _116  and  _117
REMARK   53  A    between atoms: _117  and  _118
REMARK   54  A    between atoms: _118  and  _119
REMARK   55  A    between atoms: _128  and  _130
REMARK   56  A    between atoms: _130  and  _131
REMARK   57  A    between atoms: _134  and  _136
REMARK   58  A    between atoms: _136  and  _137
REMARK   59  A    between atoms: _136  and  _139
REMARK   60  A    between atoms: _143  and  _144
REMARK   61  A    between atoms: _149  and  _151
REMARK   62  A    between atoms: _151  and  _152
REMARK   63  A    between atoms: _151  and  _154
REMARK   64  A    between atoms: _154  and  _155
REMARK   65  A    between atoms: _165  and  _167
REMARK   66  A    between atoms: _167  and  _168
REMARK   67  A    between atoms: _167  and  _170
REMARK   68  A    between atoms: _170  and  _171
REMARK   69  A    between atoms: _174  and  _176
REMARK   70  A    between atoms: _176  and  _177
REMARK   71  A    between atoms: _176  and  _179
REMARK   72  A    between atoms: _179  and  _180
REMARK   73  A    between atoms: _183  and  _185
REMARK   74  A    between atoms: _185  and  _186
REMARK   75  A    between atoms: _185  and  _188
REMARK   76  A    between atoms: _188  and  _189
REMARK   77  A    between atoms: _192  and  _194
REMARK   78  A    between atoms: _194  and  _195
REMARK   79  A    between atoms: _197  and  _199
REMARK   80  A    between atoms: _199  and  _200
REMARK   81  A    between atoms: _199  and  _202
REMARK   82  A    between atoms: _202  and  _203
REMARK   83  A    between atoms: _208  and  _210
REMARK   84  A    between atoms: _210  and  _211
REMARK   85  A    between atoms: _210  and  _213
REMARK   86  A    between atoms: _213  and  _214
REMARK   87  A    between atoms: _216  and  _218
REMARK   88  A    between atoms: _218  and  _219
REMARK   89  A    between atoms: _218  and  _221
REMARK   90  A    between atoms: _221  and  _222
REMARK   91  A    between atoms: _224  and  _226
REMARK   92  A    between atoms: _226  and  _227
REMARK   93  A    between atoms: _226  and  _229
REMARK   94  A    between atoms: _229  and  _230
REMARK   95  A    between atoms: _235  and  _236
REMARK   96  A    between atoms: _238  and  _240
REMARK   97  A    between atoms: _240  and  _241
REMARK   98  A    between atoms: _240  and  _243
REMARK   99  A    between atoms: _243  and  _244
REMARK  100  A    between atoms: _247  and  _249
REMARK  101  A    between atoms: _249  and  _250
REMARK  102  A    between atoms: _249  and  _252
REMARK  103  A    between atoms: _252  and  _253
REMARK  104  A    between atoms: _256  and  _258
REMARK  105  A    between atoms: _258  and  _259
REMARK  106  A    between atoms: _258  and  _261
REMARK  107  A    between atoms: _261  and  _262
REMARK  108  A    between atoms: _262  and  _263
REMARK  109  A    between atoms: _263  and  _264
REMARK  110  A    between atoms: _264  and  _265
REMARK  111  A    between atoms: _269  and  _271
REMARK  112  A    between atoms: _271  and  _272
REMARK  113  A    between atoms: _271  and  _274
REMARK  114  A    between atoms: _274  and  _275
REMARK  115  A    between atoms: _281  and  _283
REMARK  116  A    between atoms: _283  and  _284
REMARK  117  A    between atoms: _286  and  _288
REMARK  118  A    between atoms: _288  and  _289
REMARK  119  A    between atoms: _291  and  _293
REMARK  120  A    between atoms: _293  and  _294
REMARK  121  A    between atoms: _293  and  _296
REMARK  122  A    between atoms: _296  and  _297
REMARK  123  A    between atoms: _297  and  _298
REMARK  124  A    between atoms: _298  and  _299
REMARK  125  A    between atoms: _308  and  _310
REMARK  126  A    between atoms: _310  and  _311
REMARK  127  A    between atoms: _310  and  _313
REMARK  128  A    between atoms: _313  and  _314
REMARK  129  A    between atoms: _317  and  _319
REMARK  130  A    between atoms: _319  and  _320
REMARK  131  A    between atoms: _319  and  _322
REMARK  132  A    between atoms: _322  and  _323
REMARK  133  A    between atoms: _329  and  _331
REMARK  134  A    between atoms: _331  and  _332
REMARK  135  A    between atoms: _331  and  _334
REMARK  136  A    between atoms: _334  and  _335
REMARK  137  A    between atoms: _338  and  _340
REMARK  138  A    between atoms: _340  and  _341
REMARK  139  A    between atoms: _344  and  _346
REMARK  140  A    between atoms: _346  and  _347
REMARK  141  A    between atoms: _346  and  _349
REMARK  142  A    between atoms: _349  and  _350
REMARK  143  A    between atoms: _350  and  _351
REMARK  144  A    between atoms: _354  and  _356
REMARK  145  A    between atoms: _356  and  _357
REMARK  146  A    between atoms: _356  and  _359
REMARK  147  A    between atoms: _359  and  _360
REMARK  148  A    between atoms: _360  and  _361
REMARK  149  A    between atoms: _361  and  _362
REMARK  150  A    between atoms: _362  and  _363
REMARK  151  A    between atoms: _367  and  _369
REMARK  152  A    between atoms: _369  and  _370
REMARK  153  A    between atoms: _369  and  _372
REMARK  154  A    between atoms: _372  and  _373
REMARK  155  A    between atoms: _376  and  _378
REMARK  156  A    between atoms: _378  and  _379
REMARK  157  A    between atoms: _378  and  _381
REMARK  158  A    between atoms: _381  and  _382
REMARK  159  A    between atoms: _382  and  _383
REMARK  160  A    between atoms: _383  and  _384
REMARK  161  A    between atoms: _384  and  _385
REMARK  162  A    between atoms: _389  and  _391
REMARK  163  A    between atoms: _391  and  _392
REMARK  164  A    between atoms: _391  and  _394
REMARK  165  A    between atoms: _394  and  _395
REMARK  166  A    between atoms: _395  and  _396
REMARK  167  A    between atoms: _396  and  _397
REMARK  168  A    between atoms: _397  and  _398
REMARK  169  A    between atoms: _402  and  _404
REMARK  170  A    between atoms: _404  and  _405
REMARK  171  A    between atoms: _404  and  _407
REMARK  172  A    between atoms: _410  and  _412
REMARK  173  A    between atoms: _412  and  _413
REMARK  174  A    between atoms: _412  and  _415
REMARK  175  A    between atoms: _415  and  _416
REMARK  176  A    between atoms: _419  and  _421
REMARK  177  A    between atoms: _421  and  _422
REMARK  178  A    between atoms: _421  and  _424
REMARK  179  A    between atoms: _424  and  _425
REMARK  180  A    between atoms: _427  and  _429
REMARK  181  A    between atoms: _429  and  _430
REMARK  182  A    between atoms: _433  and  _435
REMARK  183  A    between atoms: _435  and  _436
REMARK  184  A    between atoms: _435  and  _438
REMARK  185  A    between atoms: _438  and  _439
REMARK  186  A    between atoms: _442  and  _444
REMARK  187  A    between atoms: _444  and  _445
REMARK  188  A    between atoms: _444  and  _447
REMARK  189  A    between atoms: _447  and  _448
REMARK  190  A    between atoms: _451  and  _453
REMARK  191  A    between atoms: _453  and  _454
REMARK  192  A    between atoms: _456  and  _458
REMARK  193  A    between atoms: _458  and  _459
REMARK  194  A    between atoms: _461  and  _463
REMARK  195  A    between atoms: _463  and  _464
REMARK  196  A    between atoms: _463  and  _466
REMARK  197  A    between atoms: _466  and  _467
REMARK  198  A    between atoms: _470  and  _472
REMARK  199  A    between atoms: _472  and  _473
REMARK  200  A    between atoms: _472  and  _475
REMARK  201  A    between atoms: _475  and  _476
REMARK  202  A    between atoms: _479  and  _481
REMARK  203  A    between atoms: _481  and  _482
REMARK  204  A    between atoms: _481  and  _484
REMARK  205  A    between atoms: _484  and  _485
REMARK  206  A    between atoms: _485  and  _486
REMARK  207  A    between atoms: _486  and  _487
REMARK  208  A    between atoms: _496  and  _498
REMARK  209  A    between atoms: _498  and  _499
REMARK  210  A    between atoms: _498  and  _501
REMARK  211  A    between atoms: _501  and  _502
REMARK  212  A    between atoms: _506  and  _507
REMARK  213  A    between atoms: _512  and  _514
REMARK  214  A    between atoms: _514  and  _515
REMARK  215  A    between atoms: _514  and  _517
REMARK  216  A    between atoms: _517  and  _518
REMARK  217  A    between atoms: _521  and  _523
REMARK  218  A    between atoms: _523  and  _524
REMARK  219  A    between atoms: _523  and  _526
REMARK  220  A    between atoms: _526  and  _527
REMARK  221  A    between atoms: _527  and  _528
REMARK  222  A    between atoms: _528  and  _529
REMARK  223  A    between atoms: _529  and  _530
REMARK  224  A    between atoms: _534  and  _536
REMARK  225  A    between atoms: _536  and  _537
REMARK  226  A    between atoms: _536  and  _539
REMARK  227  A    between atoms: _539  and  _540
REMARK  228  A    between atoms: _540  and  _541
REMARK  229  A    between atoms: _546  and  _548
REMARK  230  A    between atoms: _548  and  _549
REMARK  231  A    between atoms: _548  and  _551
REMARK  232  A    between atoms: _551  and  _552
REMARK  233  A    between atoms: _555  and  _557
REMARK  234  A    between atoms: _557  and  _558
REMARK  235  A    between atoms: _557  and  _560
REMARK  236  A    between atoms: _560  and  _561
REMARK  237  A    between atoms: _564  and  _566
REMARK  238  A    between atoms: _566  and  _567
REMARK  239  A    between atoms: _566  and  _569
REMARK  240  A    between atoms: _569  and  _570
REMARK  241  A    between atoms: _575  and  _577
REMARK  242  A    between atoms: _577  and  _578
REMARK  243  A    between atoms: _577  and  _580
REMARK  244  A    between atoms: _580  and  _581
REMARK  245  A    between atoms: _584  and  _586
REMARK  246  A    between atoms: _586  and  _587
REMARK  247  A    between atoms: _586  and  _589
REMARK  248  A    between atoms: _589  and  _590
REMARK  249  A    between atoms: _590  and  _591
REMARK  250  A    between atoms: _596  and  _598
REMARK  251  A    between atoms: _598  and  _599
REMARK  252  A    between atoms: _601  and  _603
REMARK  253  A    between atoms: _603  and  _604
REMARK  254  A    between atoms: _603  and  _606
REMARK  255  A    between atoms: _606  and  _607
REMARK  256  A    between atoms: _612  and  _614
REMARK  257  A    between atoms: _614  and  _615
REMARK  258  A    between atoms: _614  and  _617
REMARK  259  A    between atoms: _617  and  _618
REMARK  260  A    between atoms: _621  and  _623
REMARK  261  A    between atoms: _623  and  _624
REMARK  262  A    between atoms: _623  and  _626
REMARK  263  A    between atoms: _626  and  _627
REMARK                            x       y       z     vdW  Elec       q    Type
REMARK                         _______ _______ _______ _____ _____    ______ ____
ROOT
ATOM      1  CA  SER A   1      93.459  81.550 188.704  0.00  0.00    +0.163 C 
ENDROOT
BRANCH   1   2
ATOM      2  N   SER A   1      92.904  82.737 188.100  0.00  0.00    -0.237 NA
ATOM      3  H   SER A   1      92.564  82.691 187.118  0.00  0.00    +0.142 HD
ENDBRANCH   1   2
BRANCH   1   4
ATOM      4  CB  SER A   1      94.984  81.543 188.585  0.00  0.00    +0.227 C 
ATOM      5  OG  SER A   1      95.561  80.737 187.866  0.00  0.00    -0.287 OA
ENDBRANCH   1   4
BRANCH   1   6
ATOM      6  C   SER A   1      92.835  80.310 188.075  0.00  0.00    +0.162 C 
BRANCH   6   7
ATOM      7  O   SER A   1      91.432  80.369 188.185  0.00  0.00    -0.380 OA
ATOM      8  H   SER A   1      91.036  79.560 187.774  0.00  0.00    +0.211 HD
ENDBRANCH   6   7
ENDBRANCH   1   6
TORSDOF 4
REMARK  Name = ../refined-set-2016/3d2e/3d2e_pocket.pdb
REMARK  263 active torsions:
REMARK  status: ('A' for Active; 'I' for Inactive)
REMARK    1  A    between atoms: _1  and  _3
REMARK    2  A    between atoms: _3  and  _4
REMARK    3  A    between atoms: _3  and  _6
REMARK    4  A    between atoms: _6  and  _7
REMARK    5  A    between atoms: _10  and  _12
REMARK    6  A    between atoms: _12  and  _13
REMARK    7  A    between atoms: _12  and  _15
REMARK    8  A    between atoms: _15  and  _16
REMARK    9  A    between atoms: _19  and  _21
REMARK   10  A    between atoms: _21  and  _22
REMARK   11  A    between atoms: _24  and  _26
REMARK   12  A    between atoms: _26  and  _27
REMARK   13  A    between atoms: _26  and  _29
REMARK   14  A    between atoms: _29  and  _30
REMARK   15  A    between atoms: _35  and  _37
REMARK   16  A    between atoms: _37  and  _38
REMARK   17  A    between atoms: _37  and  _40
REMARK   18  A    between atoms: _40  and  _41
REMARK   19  A    between atoms: _46  and  _48
REMARK   20  A    between atoms: _48  and  _49
REMARK   21  A    between atoms: _48  and  _51
REMARK   22  A    between atoms: _51  and  _52
REMARK   23  A    between atoms: _57  and  _59
REMARK   24  A    between atoms: _59  and  _60
REMARK   25  A    between atoms: _59  and  _62
REMARK   26  A    between atoms: _62  and  _63
REMARK   27  A    between atoms: _65  and  _67
REMARK   28  A    between atoms: _67  and  _68
REMARK   29  A    between atoms: _67  and  _70
REMARK   30  A    between atoms: _73  and  _75
REMARK   31  A    between atoms: _75  and  _76
REMARK   32  A    between atoms: _75  and  _78
REMARK   33  A    between atoms: _78  and  _79
REMARK   34  A    between atoms: _81  and  _83
REMARK   35  A    between atoms: _83  and  _84
REMARK   36  A    between atoms: _83  and  _86
REMARK   37  A    between atoms: _86  and  _87
REMARK   38  A    between atoms: _90  and  _92
REMARK   39  A    between atoms: _92  and  _93
REMARK   40  A    between atoms: _92  and  _95
REMARK   41  A    between atoms: _95  and  _96
REMARK   42  A    between atoms: _98  and  _100
REMARK   43  A    between atoms: _100  and  _101
REMARK   44  A    between atoms: _100  and  _103
REMARK   45  A    between atoms: _103  and  _104
REMARK   46  A    between atoms: _104  and  _105
REMARK   47  A    between atoms: _105  and  _106
REMARK   48  A    between atoms: _106  and  _107
REMARK   49  A    between atoms: _111  and  _113
REMARK   50  A    between atoms: _113  and  _114
REMARK   51  A    between atoms: _113  and  _116
REMARK   52  A    between atoms: _116  and  _117
REMARK   53  A    between atoms: _117  and  _118
REMARK   54  A    between atoms: _118  and  _119
REMARK   55  A    between atoms: _128  and  _130
REMARK   56  A    between atoms: _130  and  _131
REMARK   57  A    between atoms: _134  and  _136
REMARK   58  A    between atoms: _136  and  _137
REMARK   59  A    between atoms: _136  and  _139
REMARK   60  A    between atoms: _143  and  _144
REMARK   61  A    between atoms: _149  and  _151
REMARK   62  A    between atoms: _151  and  _152
REMARK   63  A    between atoms: _151  and  _154
REMARK   64  A    between atoms: _154  and  _155
REMARK   65  A    between atoms: _165  and  _167
REMARK   66  A    between atoms: _167  and  _168
REMARK   67  A    between atoms: _167  and  _170
REMARK   68  A    between atoms: _170  and  _171
REMARK   69  A    between atoms: _174  and  _176
REMARK   70  A    between atoms: _176  and  _177
REMARK   71  A    between atoms: _176  and  _179
REMARK   72  A    between atoms: _179  and  _180
REMARK   73  A    between atoms: _183  and  _185
REMARK   74  A    between atoms: _185  and  _186
REMARK   75  A    between atoms: _185  and  _188
REMARK   76  A    between atoms: _188  and  _189
REMARK   77  A    between atoms: _192  and  _194
REMARK   78  A    between atoms: _194  and  _195
REMARK   79  A    between atoms: _197  and  _199
REMARK   80  A    between atoms: _199  and  _200
REMARK   81  A    between atoms: _199  and  _202
REMARK   82  A    between atoms: _202  and  _203
REMARK   83  A    between atoms: _208  and  _210
REMARK   84  A    between atoms: _210  and  _211
REMARK   85  A    between atoms: _210  and  _213
REMARK   86  A    between atoms: _213  and  _214
REMARK   87  A    between atoms: _216  and  _218
REMARK   88  A    between atoms: _218  and  _219
REMARK   89  A    between atoms: _218  and  _221
REMARK   90  A    between atoms: _221  and  _222
REMARK   91  A    between atoms: _224  and  _226
REMARK   92  A    between atoms: _226  and  _227
REMARK   93  A    between atoms: _226  and  _229
REMARK   94  A    between atoms: _229  and  _230
REMARK   95  A    between atoms: _235  and  _236
REMARK   96  A    between atoms: _238  and  _240
REMARK   97  A    between atoms: _240  and  _241
REMARK   98  A    between atoms: _240  and  _243
REMARK   99  A    between atoms: _243  and  _244
REMARK  100  A    between atoms: _247  and  _249
REMARK  101  A    between atoms: _249  and  _250
REMARK  102  A    between atoms: _249  and  _252
REMARK  103  A    between atoms: _252  and  _253
REMARK  104  A    between atoms: _256  and  _258
REMARK  105  A    between atoms: _258  and  _259
REMARK  106  A    between atoms: _258  and  _261
REMARK  107  A    between atoms: _261  and  _262
REMARK  108  A    between atoms: _262  and  _263
REMARK  109  A    between atoms: _263  and  _264
REMARK  110  A    between atoms: _264  and  _265
REMARK  111  A    between atoms: _269  and  _271
REMARK  112  A    between atoms: _271  and  _272
REMARK  113  A    between atoms: _271  and  _274
REMARK  114  A    between atoms: _274  and  _275
REMARK  115  A    between atoms: _281  and  _283
REMARK  116  A    between atoms: _283  and  _284
REMARK  117  A    between atoms: _286  and  _288
REMARK  118  A    between atoms: _288  and  _289
REMARK  119  A    between atoms: _291  and  _293
REMARK  120  A    between atoms: _293  and  _294
REMARK  121  A    between atoms: _293  and  _296
REMARK  122  A    between atoms: _296  and  _297
REMARK  123  A    between atoms: _297  and  _298
REMARK  124  A    between atoms: _298  and  _299
REMARK  125  A    between atoms: _308  and  _310
REMARK  126  A    between atoms: _310  and  _311
REMARK  127  A    between atoms: _310  and  _313
REMARK  128  A    between atoms: _313  and  _314
REMARK  129  A    between atoms: _317  and  _319
REMARK  130  A    between atoms: _319  and  _320
REMARK  131  A    between atoms: _319  and  _322
REMARK  132  A    between atoms: _322  and  _323
REMARK  133  A    between atoms: _329  and  _331
REMARK  134  A    between atoms: _331  and  _332
REMARK  135  A    between atoms: _331  and  _334
REMARK  136  A    between atoms: _334  and  _335
REMARK  137  A    between atoms: _338  and  _340
REMARK  138  A    between atoms: _340  and  _341
REMARK  139  A    between atoms: _344  and  _346
REMARK  140  A    between atoms: _346  and  _347
REMARK  141  A    between atoms: _346  and  _349
REMARK  142  A    between atoms: _349  and  _350
REMARK  143  A    between atoms: _350  and  _351
REMARK  144  A    between atoms: _354  and  _356
REMARK  145  A    between atoms: _356  and  _357
REMARK  146  A    between atoms: _356  and  _359
REMARK  147  A    between atoms: _359  and  _360
REMARK  148  A    between atoms: _360  and  _361
REMARK  149  A    between atoms: _361  and  _362
REMARK  150  A    between atoms: _362  and  _363
REMARK  151  A    between atoms: _367  and  _369
REMARK  152  A    between atoms: _369  and  _370
REMARK  153  A    between atoms: _369  and  _372
REMARK  154  A    between atoms: _372  and  _373
REMARK  155  A    between atoms: _376  and  _378
REMARK  156  A    between atoms: _378  and  _379
REMARK  157  A    between atoms: _378  and  _381
REMARK  158  A    between atoms: _381  and  _382
REMARK  159  A    between atoms: _382  and  _383
REMARK  160  A    between atoms: _383  and  _384
REMARK  161  A    between atoms: _384  and  _385
REMARK  162  A    between atoms: _389  and  _391
REMARK  163  A    between atoms: _391  and  _392
REMARK  164  A    between atoms: _391  and  _394
REMARK  165  A    between atoms: _394  and  _395
REMARK  166  A    between atoms: _395  and  _396
REMARK  167  A    between atoms: _396  and  _397
REMARK  168  A    between atoms: _397  and  _398
REMARK  169  A    between atoms: _402  and  _404
REMARK  170  A    between atoms: _404  and  _405
REMARK  171  A    between atoms: _404  and  _407
REMARK  172  A    between atoms: _410  and  _412
REMARK  173  A    between atoms: _412  and  _413
REMARK  174  A    between atoms: _412  and  _415
REMARK  175  A    between atoms: _415  and  _416
REMARK  176  A    between atoms: _419  and  _421
REMARK  177  A    between atoms: _421  and  _422
REMARK  178  A    between atoms: _421  and  _424
REMARK  179  A    between atoms: _424  and  _425
REMARK  180  A    between atoms: _427  and  _429
REMARK  181  A    between atoms: _429  and  _430
REMARK  182  A    between atoms: _433  and  _435
REMARK  183  A    between atoms: _435  and  _436
REMARK  184  A    between atoms: _435  and  _438
REMARK  185  A    between atoms: _438  and  _439
REMARK  186  A    between atoms: _442  and  _444
REMARK  187  A    between atoms: _444  and  _445
REMARK  188  A    between atoms: _444  and  _447
REMARK  189  A    between atoms: _447  and  _448
REMARK  190  A    between atoms: _451  and  _453
REMARK  191  A    between atoms: _453  and  _454
REMARK  192  A    between atoms: _456  and  _458
REMARK  193  A    between atoms: _458  and  _459
REMARK  194  A    between atoms: _461  and  _463
REMARK  195  A    between atoms: _463  and  _464
REMARK  196  A    between atoms: _463  and  _466
REMARK  197  A    between atoms: _466  and  _467
REMARK  198  A    between atoms: _470  and  _472
REMARK  199  A    between atoms: _472  and  _473
REMARK  200  A    between atoms: _472  and  _475
REMARK  201  A    between atoms: _475  and  _476
REMARK  202  A    between atoms: _479  and  _481
REMARK  203  A    between atoms: _481  and  _482
REMARK  204  A    between atoms: _481  and  _484
REMARK  205  A    between atoms: _484  and  _485
REMARK  206  A    between atoms: _485  and  _486
REMARK  207  A    between atoms: _486  and  _487
REMARK  208  A    between atoms: _496  and  _498
REMARK  209  A    between atoms: _498  and  _499
REMARK  210  A    between atoms: _498  and  _501
REMARK  211  A    between atoms: _501  and  _502
REMARK  212  A    between atoms: _506  and  _507
REMARK  213  A    between atoms: _512  and  _514
REMARK  214  A    between atoms: _514  and  _515
REMARK  215  A    between atoms: _514  and  _517
REMARK  216  A    between atoms: _517  and  _518
REMARK  217  A    between atoms: _521  and  _523
REMARK  218  A    between atoms: _523  and  _524
REMARK  219  A    between atoms: _523  and  _526
REMARK  220  A    between atoms: _526  and  _527
REMARK  221  A    between atoms: _527  and  _528
REMARK  222  A    between atoms: _528  and  _529
REMARK  223  A    between atoms: _529  and  _530
REMARK  224  A    between atoms: _534  and  _536
REMARK  225  A    between atoms: _536  and  _537
REMARK  226  A    between atoms: _536  and  _539
REMARK  227  A    between atoms: _539  and  _540
REMARK  228  A    between atoms: _540  and  _541
REMARK  229  A    between atoms: _546  and  _548
REMARK  230  A    between atoms: _548  and  _549
REMARK  231  A    between atoms: _548  and  _551
REMARK  232  A    between atoms: _551  and  _552
REMARK  233  A    between atoms: _555  and  _557
REMARK  234  A    between atoms: _557  and  _558
REMARK  235  A    between atoms: _557  and  _560
REMARK  236  A    between atoms: _560  and  _561
REMARK  237  A    between atoms: _564  and  _566
REMARK  238  A    between atoms: _566  and  _567
REMARK  239  A    between atoms: _566  and  _569
REMARK  240  A    between atoms: _569  and  _570
REMARK  241  A    between atoms: _575  and  _577
REMARK  242  A    between atoms: _577  and  _578
REMARK  243  A    between atoms: _577  and  _580
REMARK  244  A    between atoms: _580  and  _581
REMARK  245  A    between atoms: _584  and  _586
REMARK  246  A    between atoms: _586  and  _587
REMARK  247  A    between atoms: _586  and  _589
REMARK  248  A    between atoms: _589  and  _590
REMARK  249  A    between atoms: _590  and  _591
REMARK  250  A    between atoms: _596  and  _598
REMARK  251  A    between atoms: _598  and  _599
REMARK  252  A    between atoms: _601  and  _603
REMARK  253  A    between atoms: _603  and  _604
REMARK  254  A    between atoms: _603  and  _606
REMARK  255  A    between atoms: _606  and  _607
REMARK  256  A    between atoms: _612  and  _614
REMARK  257  A    between atoms: _614  and  _615
REMARK  258  A    between atoms: _614  and  _617
REMARK  259  A    between atoms: _617  and  _618
REMARK  260  A    between atoms: _621  and  _623
REMARK  261  A    between atoms: _623  and  _624
REMARK  262  A    between atoms: _623  and  _626
REMARK  263  A    between atoms: _626  and  _627
REMARK                            x       y       z     vdW  Elec       q    Type
REMARK                         _______ _______ _______ _____ _____    ______ ____
ROOT
ATOM      1  C   LYS A   1      94.658  71.744 186.354  0.00  0.00    +0.238 C 
ATOM      2  O   LYS A   1      94.359  70.545 186.483  0.00  0.00    -0.274 OA
ATOM      3  N   ARG A   2      95.442  72.200 185.376  0.00  0.00    -0.298 N 
ATOM      4  H   ARG A   2      95.737  73.197 185.378  0.00  0.00    +0.150 HD
ENDROOT
BRANCH   1   5
ATOM      5  CA  LYS A   1      94.017  72.810 187.219  0.00  0.00    +0.145 C 
BRANCH   5   6
ATOM      6  N   LYS A   1      94.903  73.962 187.525  0.00  0.00    -0.238 NA
ATOM      7  H   LYS A   1      94.495  74.908 187.381  0.00  0.00    +0.142 HD
ENDBRANCH   5   6
BRANCH   5   8
ATOM      8  CB  LYS A   1      92.929  73.337 186.289  0.00  0.00    +0.026 C 
BRANCH   8   9
ATOM      9  CG  LYS A   1      91.573  73.520 186.780  0.00  0.00    -0.000 C 
BRANCH   9  10
ATOM     10  CD  LYS A   1      90.776  73.827 185.521  0.00  0.00    -0.024 C 
BRANCH  10  11
ATOM     11  CE  LYS A   1      89.523  73.033 185.418  0.00  0.00    -0.086 C 
BRANCH  11  12
ATOM     12  NZ  LYS A   1      88.348  73.918 185.402  0.00  0.00    +0.380 N 
ATOM     13  HZ1 LYS A   1      88.323  74.475 186.280  0.00  0.00    -0.089 HD
ATOM     14  HZ2 LYS A   1      87.484  73.344 185.330  0.00  0.00    -0.089 HD
ATOM     15  HZ3 LYS A   1      88.409  74.559 184.585  0.00  0.00    -0.089 HD
ENDBRANCH  11  12
ENDBRANCH  10  11
ENDBRANCH   9  10
ENDBRANCH   8   9
ENDBRANCH   5   8
ENDBRANCH   1   5
BRANCH   3  16
ATOM     16  CA  ARG A   2      95.890  71.322 184.307  0.00  0.00    +0.137 C 
BRANCH  16  17
ATOM     17  C   ARG A   2      97.103  70.489 184.705  0.00  0.00    +0.227 C 
ATOM     18  O   ARG A   2      97.328  69.421 184.142  0.00  0.00    -0.286 OA
ENDBRANCH  16  17
BRANCH  16  19
ATOM     19  CB  ARG A   2      96.153  72.112 183.025  0.00  0.00    +0.031 C 
BRANCH  19  20
ATOM     20  CG  ARG A   2      94.996  73.048 182.569  0.00  0.00    +0.045 C 
BRANCH  20  21
ATOM     21  CD  ARG A   2      93.813  72.319 181.908  0.00  0.00    +0.174 C 
BRANCH  21  22
ATOM     22  NE  ARG A   2      94.268  71.369 180.901  0.00  0.00    -0.265 N 
ATOM     23  HE  ARG A   2      95.242  71.015 180.990  0.00  0.00    +0.259 HD
ATOM     24  CZ  ARG A   2      93.545  70.913 179.874  0.00  0.00    +0.342 C 
ATOM     25  NH2 ARG A   2      92.302  71.319 179.674  0.00  0.00    -0.292 N 
ATOM     26 HH21 ARG A   2      91.869  72.007 180.323  0.00  0.00    +0.255 HD
ATOM     27 HH22 ARG A   2      91.758  70.951 178.868  0.00  0.00    +0.255 HD
ATOM     28  NH1 ARG A   2      94.091  70.045 179.034  0.00  0.00    -0.292 N 
ATOM     29 HH11 ARG A   2      95.071  69.727 179.179  0.00  0.00    +0.255 HD
ATOM     30 HH12 ARG A   2      93.540  69.682 178.230  0.00  0.00    +0.255 HD
ENDBRANCH  21  22
ENDBRANCH  20  21
ENDBRANCH  19  20
ENDBRANCH  16  19
ENDBRANCH   3  16
TORSDOF 13
REMARK  Name = ../refined-set-2016/3d2e/3d2e_pocket.pdb
REMARK  263 active torsions:
REMARK  status: ('A' for Active; 'I' for Inactive)
REMARK    1  A    between atoms: _1  and  _3
REMARK    2  A    between atoms: _3  and  _4
REMARK    3  A    between atoms: _3  and  _6
REMARK    4  A    between atoms: _6  and  _7
REMARK    5  A    between atoms: _10  and  _12
REMARK    6  A    between atoms: _12  and  _13
REMARK    7  A    between atoms: _12  and  _15
REMARK    8  A    between atoms: _15  and  _16
REMARK    9  A    between atoms: _19  and  _21
REMARK   10  A    between atoms: _21  and  _22
REMARK   11  A    between atoms: _24  and  _26
REMARK   12  A    between atoms: _26  and  _27
REMARK   13  A    between atoms: _26  and  _29
REMARK   14  A    between atoms: _29  and  _30
REMARK   15  A    between atoms: _35  and  _37
REMARK   16  A    between atoms: _37  and  _38
REMARK   17  A    between atoms: _37  and  _40
REMARK   18  A    between atoms: _40  and  _41
REMARK   19  A    between atoms: _46  and  _48
REMARK   20  A    between atoms: _48  and  _49
REMARK   21  A    between atoms: _48  and  _51
REMARK   22  A    between atoms: _51  and  _52
REMARK   23  A    between atoms: _57  and  _59
REMARK   24  A    between atoms: _59  and  _60
REMARK   25  A    between atoms: _59  and  _62
REMARK   26  A    between atoms: _62  and  _63
REMARK   27  A    between atoms: _65  and  _67
REMARK   28  A    between atoms: _67  and  _68
REMARK   29  A    between atoms: _67  and  _70
REMARK   30  A    between atoms: _73  and  _75
REMARK   31  A    between atoms: _75  and  _76
REMARK   32  A    between atoms: _75  and  _78
REMARK   33  A    between atoms: _78  and  _79
REMARK   34  A    between atoms: _81  and  _83
REMARK   35  A    between atoms: _83  and  _84
REMARK   36  A    between atoms: _83  and  _86
REMARK   37  A    between atoms: _86  and  _87
REMARK   38  A    between atoms: _90  and  _92
REMARK   39  A    between atoms: _92  and  _93
REMARK   40  A    between atoms: _92  and  _95
REMARK   41  A    between atoms: _95  and  _96
REMARK   42  A    between atoms: _98  and  _100
REMARK   43  A    between atoms: _100  and  _101
REMARK   44  A    between atoms: _100  and  _103
REMARK   45  A    between atoms: _103  and  _104
REMARK   46  A    between atoms: _104  and  _105
REMARK   47  A    between atoms: _105  and  _106
REMARK   48  A    between atoms: _106  and  _107
REMARK   49  A    between atoms: _111  and  _113
REMARK   50  A    between atoms: _113  and  _114
REMARK   51  A    between atoms: _113  and  _116
REMARK   52  A    between atoms: _116  and  _117
REMARK   53  A    between atoms: _117  and  _118
REMARK   54  A    between atoms: _118  and  _119
REMARK   55  A    between atoms: _128  and  _130
REMARK   56  A    between atoms: _130  and  _131
REMARK   57  A    between atoms: _134  and  _136
REMARK   58  A    between atoms: _136  and  _137
REMARK   59  A    between atoms: _136  and  _139
REMARK   60  A    between atoms: _143  and  _144
REMARK   61  A    between atoms: _149  and  _151
REMARK   62  A    between atoms: _151  and  _152
REMARK   63  A    between atoms: _151  and  _154
REMARK   64  A    between atoms: _154  and  _155
REMARK   65  A    between atoms: _165  and  _167
REMARK   66  A    between atoms: _167  and  _168
REMARK   67  A    between atoms: _167  and  _170
REMARK   68  A    between atoms: _170  and  _171
REMARK   69  A    between atoms: _174  and  _176
REMARK   70  A    between atoms: _176  and  _177
REMARK   71  A    between atoms: _176  and  _179
REMARK   72  A    between atoms: _179  and  _180
REMARK   73  A    between atoms: _183  and  _185
REMARK   74  A    between atoms: _185  and  _186
REMARK   75  A    between atoms: _185  and  _188
REMARK   76  A    between atoms: _188  and  _189
REMARK   77  A    between atoms: _192  and  _194
REMARK   78  A    between atoms: _194  and  _195
REMARK   79  A    between atoms: _197  and  _199
REMARK   80  A    between atoms: _199  and  _200
REMARK   81  A    between atoms: _199  and  _202
REMARK   82  A    between atoms: _202  and  _203
REMARK   83  A    between atoms: _208  and  _210
REMARK   84  A    between atoms: _210  and  _211
REMARK   85  A    between atoms: _210  and  _213
REMARK   86  A    between atoms: _213  and  _214
REMARK   87  A    between atoms: _216  and  _218
REMARK   88  A    between atoms: _218  and  _219
REMARK   89  A    between atoms: _218  and  _221
REMARK   90  A    between atoms: _221  and  _222
REMARK   91  A    between atoms: _224  and  _226
REMARK   92  A    between atoms: _226  and  _227
REMARK   93  A    between atoms: _226  and  _229
REMARK   94  A    between atoms: _229  and  _230
REMARK   95  A    between atoms: _235  and  _236
REMARK   96  A    between atoms: _238  and  _240
REMARK   97  A    between atoms: _240  and  _241
REMARK   98  A    between atoms: _240  and  _243
REMARK   99  A    between atoms: _243  and  _244
REMARK  100  A    between atoms: _247  and  _249
REMARK  101  A    between atoms: _249  and  _250
REMARK  102  A    between atoms: _249  and  _252
REMARK  103  A    between atoms: _252  and  _253
REMARK  104  A    between atoms: _256  and  _258
REMARK  105  A    between atoms: _258  and  _259
REMARK  106  A    between atoms: _258  and  _261
REMARK  107  A    between atoms: _261  and  _262
REMARK  108  A    between atoms: _262  and  _263
REMARK  109  A    between atoms: _263  and  _264
REMARK  110  A    between atoms: _264  and  _265
REMARK  111  A    between atoms: _269  and  _271
REMARK  112  A    between atoms: _271  and  _272
REMARK  113  A    between atoms: _271  and  _274
REMARK  114  A    between atoms: _274  and  _275
REMARK  115  A    between atoms: _281  and  _283
REMARK  116  A    between atoms: _283  and  _284
REMARK  117  A    between atoms: _286  and  _288
REMARK  118  A    between atoms: _288  and  _289
REMARK  119  A    between atoms: _291  and  _293
REMARK  120  A    between atoms: _293  and  _294
REMARK  121  A    between atoms: _293  and  _296
REMARK  122  A    between atoms: _296  and  _297
REMARK  123  A    between atoms: _297  and  _298
REMARK  124  A    between atoms: _298  and  _299
REMARK  125  A    between atoms: _308  and  _310
REMARK  126  A    between atoms: _310  and  _311
REMARK  127  A    between atoms: _310  and  _313
REMARK  128  A    between atoms: _313  and  _314
REMARK  129  A    between atoms: _317  and  _319
REMARK  130  A    between atoms: _319  and  _320
REMARK  131  A    between atoms: _319  and  _322
REMARK  132  A    between atoms: _322  and  _323
REMARK  133  A    between atoms: _329  and  _331
REMARK  134  A    between atoms: _331  and  _332
REMARK  135  A    between atoms: _331  and  _334
REMARK  136  A    between atoms: _334  and  _335
REMARK  137  A    between atoms: _338  and  _340
REMARK  138  A    between atoms: _340  and  _341
REMARK  139  A    between atoms: _344  and  _346
REMARK  140  A    between atoms: _346  and  _347
REMARK  141  A    between atoms: _346  and  _349
REMARK  142  A    between atoms: _349  and  _350
REMARK  143  A    between atoms: _350  and  _351
REMARK  144  A    between atoms: _354  and  _356
REMARK  145  A    between atoms: _356  and  _357
REMARK  146  A    between atoms: _356  and  _359
REMARK  147  A    between atoms: _359  and  _360
REMARK  148  A    between atoms: _360  and  _361
REMARK  149  A    between atoms: _361  and  _362
REMARK  150  A    between atoms: _362  and  _363
REMARK  151  A    between atoms: _367  and  _369
REMARK  152  A    between atoms: _369  and  _370
REMARK  153  A    between atoms: _369  and  _372
REMARK  154  A    between atoms: _372  and  _373
REMARK  155  A    between atoms: _376  and  _378
REMARK  156  A    between atoms: _378  and  _379
REMARK  157  A    between atoms: _378  and  _381
REMARK  158  A    between atoms: _381  and  _382
REMARK  159  A    between atoms: _382  and  _383
REMARK  160  A    between atoms: _383  and  _384
REMARK  161  A    between atoms: _384  and  _385
REMARK  162  A    between atoms: _389  and  _391
REMARK  163  A    between atoms: _391  and  _392
REMARK  164  A    between atoms: _391  and  _394
REMARK  165  A    between atoms: _394  and  _395
REMARK  166  A    between atoms: _395  and  _396
REMARK  167  A    between atoms: _396  and  _397
REMARK  168  A    between atoms: _397  and  _398
REMARK  169  A    between atoms: _402  and  _404
REMARK  170  A    between atoms: _404  and  _405
REMARK  171  A    between atoms: _404  and  _407
REMARK  172  A    between atoms: _410  and  _412
REMARK  173  A    between atoms: _412  and  _413
REMARK  174  A    between atoms: _412  and  _415
REMARK  175  A    between atoms: _415  and  _416
REMARK  176  A    between atoms: _419  and  _421
REMARK  177  A    between atoms: _421  and  _422
REMARK  178  A    between atoms: _421  and  _424
REMARK  179  A    between atoms: _424  and  _425
REMARK  180  A    between atoms: _427  and  _429
REMARK  181  A    between atoms: _429  and  _430
REMARK  182  A    between atoms: _433  and  _435
REMARK  183  A    between atoms: _435  and  _436
REMARK  184  A    between atoms: _435  and  _438
REMARK  185  A    between atoms: _438  and  _439
REMARK  186  A    between atoms: _442  and  _444
REMARK  187  A    between atoms: _444  and  _445
REMARK  188  A    between atoms: _444  and  _447
REMARK  189  A    between atoms: _447  and  _448
REMARK  190  A    between atoms: _451  and  _453
REMARK  191  A    between atoms: _453  and  _454
REMARK  192  A    between atoms: _456  and  _458
REMARK  193  A    between atoms: _458  and  _459
REMARK  194  A    between atoms: _461  and  _463
REMARK  195  A    between atoms: _463  and  _464
REMARK  196  A    between atoms: _463  and  _466
REMARK  197  A    between atoms: _466  and  _467
REMARK  198  A    between atoms: _470  and  _472
REMARK  199  A    between atoms: _472  and  _473
REMARK  200  A    between atoms: _472  and  _475
REMARK  201  A    between atoms: _475  and  _476
REMARK  202  A    between atoms: _479  and  _481
REMARK  203  A    between atoms: _481  and  _482
REMARK  204  A    between atoms: _481  and  _484
REMARK  205  A    between atoms: _484  and  _485
REMARK  206  A    between atoms: _485  and  _486
REMARK  207  A    between atoms: _486  and  _487
REMARK  208  A    between atoms: _496  and  _498
REMARK  209  A    between atoms: _498  and  _499
REMARK  210  A    between atoms: _498  and  _501
REMARK  211  A    between atoms: _501  and  _502
REMARK  212  A    between atoms: _506  and  _507
REMARK  213  A    between atoms: _512  and  _514
REMARK  214  A    between atoms: _514  and  _515
REMARK  215  A    between atoms: _514  and  _517
REMARK  216  A    between atoms: _517  and  _518
REMARK  217  A    between atoms: _521  and  _523
REMARK  218  A    between atoms: _523  and  _524
REMARK  219  A    between atoms: _523  and  _526
REMARK  220  A    between atoms: _526  and  _527
REMARK  221  A    between atoms: _527  and  _528
REMARK  222  A    between atoms: _528  and  _529
REMARK  223  A    between atoms: _529  and  _530
REMARK  224  A    between atoms: _534  and  _536
REMARK  225  A    between atoms: _536  and  _537
REMARK  226  A    between atoms: _536  and  _539
REMARK  227  A    between atoms: _539  and  _540
REMARK  228  A    between atoms: _540  and  _541
REMARK  229  A    between atoms: _546  and  _548
REMARK  230  A    between atoms: _548  and  _549
REMARK  231  A    between atoms: _548  and  _551
REMARK  232  A    between atoms: _551  and  _552
REMARK  233  A    between atoms: _555  and  _557
REMARK  234  A    between atoms: _557  and  _558
REMARK  235  A    between atoms: _557  and  _560
REMARK  236  A    between atoms: _560  and  _561
REMARK  237  A    between atoms: _564  and  _566
REMARK  238  A    between atoms: _566  and  _567
REMARK  239  A    between atoms: _566  and  _569
REMARK  240  A    between atoms: _569  and  _570
REMARK  241  A    between atoms: _575  and  _577
REMARK  242  A    between atoms: _577  and  _578
REMARK  243  A    between atoms: _577  and  _580
REMARK  244  A    between atoms: _580  and  _581
REMARK  245  A    between atoms: _584  and  _586
REMARK  246  A    between atoms: _586  and  _587
REMARK  247  A    between atoms: _586  and  _589
REMARK  248  A    between atoms: _589  and  _590
REMARK  249  A    between atoms: _590  and  _591
REMARK  250  A    between atoms: _596  and  _598
REMARK  251  A    between atoms: _598  and  _599
REMARK  252  A    between atoms: _601  and  _603
REMARK  253  A    between atoms: _603  and  _604
REMARK  254  A    between atoms: _603  and  _606
REMARK  255  A    between atoms: _606  and  _607
REMARK  256  A    between atoms: _612  and  _614
REMARK  257  A    between atoms: _614  and  _615
REMARK  258  A    between atoms: _614  and  _617
REMARK  259  A    between atoms: _617  and  _618
REMARK  260  A    between atoms: _621  and  _623
REMARK  261  A    between atoms: _623  and  _624
REMARK  262  A    between atoms: _623  and  _626
REMARK  263  A    between atoms: _626  and  _627
REMARK                            x       y       z     vdW  Elec       q    Type
REMARK                         _______ _______ _______ _____ _____    ______ ____
ROOT
ATOM      1  CA  VAL A   2      86.361  69.903 188.386  0.00  0.00    +0.149 C 
ENDROOT
BRANCH   1   2
ATOM      2  C   VAL A   2      85.823  69.448 187.020  0.00  0.00    +0.248 C 
ATOM      3  O   VAL A   2      84.622  69.148 186.903  0.00  0.00    -0.273 OA
ATOM      4  N   PRO A   3      86.688  69.389 185.978  0.00  0.00    -0.250 N 
ATOM      5  CD  PRO A   3      88.096  69.828 185.931  0.00  0.00    +0.063 C 
ATOM      6  CG  PRO A   3      88.487  69.670 184.489  0.00  0.00    -0.008 C 
ATOM      7  CB  PRO A   3      87.324  69.099 183.678  0.00  0.00    +0.056 C 
ATOM      8  CA  PRO A   3      86.196  68.819 184.683  0.00  0.00    +0.149 C 
BRANCH   8   9
ATOM      9  C   PRO A   3      85.928  67.321 184.770  0.00  0.00    +0.228 C 
ATOM     10  O   PRO A   3      86.640  66.606 185.499  0.00  0.00    -0.286 OA
ENDBRANCH   8   9
ENDBRANCH   1   2
BRANCH   1  13
ATOM     11  C   ALA A   1      85.095  71.456 189.827  0.00  0.00    +0.238 C 
ATOM     12  O   ALA A   1      85.893  72.372 189.655  0.00  0.00    -0.274 OA
ATOM     13  N   VAL A   2      85.239  70.259 189.274  0.00  0.00    -0.297 N 
ATOM     14  H   VAL A   2      84.523  69.533 189.478  0.00  0.00    +0.150 HD
BRANCH  11  15
ATOM     15  CA  ALA A   1      83.877  71.655 190.710  0.00  0.00    +0.145 C 
ATOM     16  CB  ALA A   1      82.866  72.595 190.073  0.00  0.00    +0.028 C 
BRANCH  15  17
ATOM     17  N   ALA A   1      84.332  72.185 191.985  0.00  0.00    -0.238 NA
ATOM     18  H   ALA A   1      84.478  73.209 192.091  0.00  0.00    +0.142 HD
ENDBRANCH  15  17
ENDBRANCH  11  15
ENDBRANCH   1  13
BRANCH   1  19
ATOM     19  CB  VAL A   2      87.236  68.790 189.023  0.00  0.00    +0.027 C 
ATOM     20  CG2 VAL A   2      87.833  69.278 190.336  0.00  0.00    +0.002 C 
ATOM     21  CG1 VAL A   2      86.423  67.479 189.228  0.00  0.00    +0.002 C 
ENDBRANCH   1  19
TORSDOF 6
REMARK  Name = ../refined-set-2016/3d2e/3d2e_pocket.pdb
REMARK  263 active torsions:
REMARK  status: ('A' for Active; 'I' for Inactive)
REMARK    1  A    between atoms: _1  and  _3
REMARK    2  A    between atoms: _3  and  _4
REMARK    3  A    between atoms: _3  and  _6
REMARK    4  A    between atoms: _6  and  _7
REMARK    5  A    between atoms: _10  and  _12
REMARK    6  A    between atoms: _12  and  _13
REMARK    7  A    between atoms: _12  and  _15
REMARK    8  A    between atoms: _15  and  _16
REMARK    9  A    between atoms: _19  and  _21
REMARK   10  A    between atoms: _21  and  _22
REMARK   11  A    between atoms: _24  and  _26
REMARK   12  A    between atoms: _26  and  _27
REMARK   13  A    between atoms: _26  and  _29
REMARK   14  A    between atoms: _29  and  _30
REMARK   15  A    between atoms: _35  and  _37
REMARK   16  A    between atoms: _37  and  _38
REMARK   17  A    between atoms: _37  and  _40
REMARK   18  A    between atoms: _40  and  _41
REMARK   19  A    between atoms: _46  and  _48
REMARK   20  A    between atoms: _48  and  _49
REMARK   21  A    between atoms: _48  and  _51
REMARK   22  A    between atoms: _51  and  _52
REMARK   23  A    between atoms: _57  and  _59
REMARK   24  A    between atoms: _59  and  _60
REMARK   25  A    between atoms: _59  and  _62
REMARK   26  A    between atoms: _62  and  _63
REMARK   27  A    between atoms: _65  and  _67
REMARK   28  A    between atoms: _67  and  _68
REMARK   29  A    between atoms: _67  and  _70
REMARK   30  A    between atoms: _73  and  _75
REMARK   31  A    between atoms: _75  and  _76
REMARK   32  A    between atoms: _75  and  _78
REMARK   33  A    between atoms: _78  and  _79
REMARK   34  A    between atoms: _81  and  _83
REMARK   35  A    between atoms: _83  and  _84
REMARK   36  A    between atoms: _83  and  _86
REMARK   37  A    between atoms: _86  and  _87
REMARK   38  A    between atoms: _90  and  _92
REMARK   39  A    between atoms: _92  and  _93
REMARK   40  A    between atoms: _92  and  _95
REMARK   41  A    between atoms: _95  and  _96
REMARK   42  A    between atoms: _98  and  _100
REMARK   43  A    between atoms: _100  and  _101
REMARK   44  A    between atoms: _100  and  _103
REMARK   45  A    between atoms: _103  and  _104
REMARK   46  A    between atoms: _104  and  _105
REMARK   47  A    between atoms: _105  and  _106
REMARK   48  A    between atoms: _106  and  _107
REMARK   49  A    between atoms: _111  and  _113
REMARK   50  A    between atoms: _113  and  _114
REMARK   51  A    between atoms: _113  and  _116
REMARK   52  A    between atoms: _116  and  _117
REMARK   53  A    between atoms: _117  and  _118
REMARK   54  A    between atoms: _118  and  _119
REMARK   55  A    between atoms: _128  and  _130
REMARK   56  A    between atoms: _130  and  _131
REMARK   57  A    between atoms: _134  and  _136
REMARK   58  A    between atoms: _136  and  _137
REMARK   59  A    between atoms: _136  and  _139
REMARK   60  A    between atoms: _143  and  _144
REMARK   61  A    between atoms: _149  and  _151
REMARK   62  A    between atoms: _151  and  _152
REMARK   63  A    between atoms: _151  and  _154
REMARK   64  A    between atoms: _154  and  _155
REMARK   65  A    between atoms: _165  and  _167
REMARK   66  A    between atoms: _167  and  _168
REMARK   67  A    between atoms: _167  and  _170
REMARK   68  A    between atoms: _170  and  _171
REMARK   69  A    between atoms: _174  and  _176
REMARK   70  A    between atoms: _176  and  _177
REMARK   71  A    between atoms: _176  and  _179
REMARK   72  A    between atoms: _179  and  _180
REMARK   73  A    between atoms: _183  and  _185
REMARK   74  A    between atoms: _185  and  _186
REMARK   75  A    between atoms: _185  and  _188
REMARK   76  A    between atoms: _188  and  _189
REMARK   77  A    between atoms: _192  and  _194
REMARK   78  A    between atoms: _194  and  _195
REMARK   79  A    between atoms: _197  and  _199
REMARK   80  A    between atoms: _199  and  _200
REMARK   81  A    between atoms: _199  and  _202
REMARK   82  A    between atoms: _202  and  _203
REMARK   83  A    between atoms: _208  and  _210
REMARK   84  A    between atoms: _210  and  _211
REMARK   85  A    between atoms: _210  and  _213
REMARK   86  A    between atoms: _213  and  _214
REMARK   87  A    between atoms: _216  and  _218
REMARK   88  A    between atoms: _218  and  _219
REMARK   89  A    between atoms: _218  and  _221
REMARK   90  A    between atoms: _221  and  _222
REMARK   91  A    between atoms: _224  and  _226
REMARK   92  A    between atoms: _226  and  _227
REMARK   93  A    between atoms: _226  and  _229
REMARK   94  A    between atoms: _229  and  _230
REMARK   95  A    between atoms: _235  and  _236
REMARK   96  A    between atoms: _238  and  _240
REMARK   97  A    between atoms: _240  and  _241
REMARK   98  A    between atoms: _240  and  _243
REMARK   99  A    between atoms: _243  and  _244
REMARK  100  A    between atoms: _247  and  _249
REMARK  101  A    between atoms: _249  and  _250
REMARK  102  A    between atoms: _249  and  _252
REMARK  103  A    between atoms: _252  and  _253
REMARK  104  A    between atoms: _256  and  _258
REMARK  105  A    between atoms: _258  and  _259
REMARK  106  A    between atoms: _258  and  _261
REMARK  107  A    between atoms: _261  and  _262
REMARK  108  A    between atoms: _262  and  _263
REMARK  109  A    between atoms: _263  and  _264
REMARK  110  A    between atoms: _264  and  _265
REMARK  111  A    between atoms: _269  and  _271
REMARK  112  A    between atoms: _271  and  _272
REMARK  113  A    between atoms: _271  and  _274
REMARK  114  A    between atoms: _274  and  _275
REMARK  115  A    between atoms: _281  and  _283
REMARK  116  A    between atoms: _283  and  _284
REMARK  117  A    between atoms: _286  and  _288
REMARK  118  A    between atoms: _288  and  _289
REMARK  119  A    between atoms: _291  and  _293
REMARK  120  A    between atoms: _293  and  _294
REMARK  121  A    between atoms: _293  and  _296
REMARK  122  A    between atoms: _296  and  _297
REMARK  123  A    between atoms: _297  and  _298
REMARK  124  A    between atoms: _298  and  _299
REMARK  125  A    between atoms: _308  and  _310
REMARK  126  A    between atoms: _310  and  _311
REMARK  127  A    between atoms: _310  and  _313
REMARK  128  A    between atoms: _313  and  _314
REMARK  129  A    between atoms: _317  and  _319
REMARK  130  A    between atoms: _319  and  _320
REMARK  131  A    between atoms: _319  and  _322
REMARK  132  A    between atoms: _322  and  _323
REMARK  133  A    between atoms: _329  and  _331
REMARK  134  A    between atoms: _331  and  _332
REMARK  135  A    between atoms: _331  and  _334
REMARK  136  A    between atoms: _334  and  _335
REMARK  137  A    between atoms: _338  and  _340
REMARK  138  A    between atoms: _340  and  _341
REMARK  139  A    between atoms: _344  and  _346
REMARK  140  A    between atoms: _346  and  _347
REMARK  141  A    between atoms: _346  and  _349
REMARK  142  A    between atoms: _349  and  _350
REMARK  143  A    between atoms: _350  and  _351
REMARK  144  A    between atoms: _354  and  _356
REMARK  145  A    between atoms: _356  and  _357
REMARK  146  A    between atoms: _356  and  _359
REMARK  147  A    between atoms: _359  and  _360
REMARK  148  A    between atoms: _360  and  _361
REMARK  149  A    between atoms: _361  and  _362
REMARK  150  A    between atoms: _362  and  _363
REMARK  151  A    between atoms: _367  and  _369
REMARK  152  A    between atoms: _369  and  _370
REMARK  153  A    between atoms: _369  and  _372
REMARK  154  A    between atoms: _372  and  _373
REMARK  155  A    between atoms: _376  and  _378
REMARK  156  A    between atoms: _378  and  _379
REMARK  157  A    between atoms: _378  and  _381
REMARK  158  A    between atoms: _381  and  _382
REMARK  159  A    between atoms: _382  and  _383
REMARK  160  A    between atoms: _383  and  _384
REMARK  161  A    between atoms: _384  and  _385
REMARK  162  A    between atoms: _389  and  _391
REMARK  163  A    between atoms: _391  and  _392
REMARK  164  A    between atoms: _391  and  _394
REMARK  165  A    between atoms: _394  and  _395
REMARK  166  A    between atoms: _395  and  _396
REMARK  167  A    between atoms: _396  and  _397
REMARK  168  A    between atoms: _397  and  _398
REMARK  169  A    between atoms: _402  and  _404
REMARK  170  A    between atoms: _404  and  _405
REMARK  171  A    between atoms: _404  and  _407
REMARK  172  A    between atoms: _410  and  _412
REMARK  173  A    between atoms: _412  and  _413
REMARK  174  A    between atoms: _412  and  _415
REMARK  175  A    between atoms: _415  and  _416
REMARK  176  A    between atoms: _419  and  _421
REMARK  177  A    between atoms: _421  and  _422
REMARK  178  A    between atoms: _421  and  _424
REMARK  179  A    between atoms: _424  and  _425
REMARK  180  A    between atoms: _427  and  _429
REMARK  181  A    between atoms: _429  and  _430
REMARK  182  A    between atoms: _433  and  _435
REMARK  183  A    between atoms: _435  and  _436
REMARK  184  A    between atoms: _435  and  _438
REMARK  185  A    between atoms: _438  and  _439
REMARK  186  A    between atoms: _442  and  _444
REMARK  187  A    between atoms: _444  and  _445
REMARK  188  A    between atoms: _444  and  _447
REMARK  189  A    between atoms: _447  and  _448
REMARK  190  A    between atoms: _451  and  _453
REMARK  191  A    between atoms: _453  and  _454
REMARK  192  A    between atoms: _456  and  _458
REMARK  193  A    between atoms: _458  and  _459
REMARK  194  A    between atoms: _461  and  _463
REMARK  195  A    between atoms: _463  and  _464
REMARK  196  A    between atoms: _463  and  _466
REMARK  197  A    between atoms: _466  and  _467
REMARK  198  A    between atoms: _470  and  _472
REMARK  199  A    between atoms: _472  and  _473
REMARK  200  A    between atoms: _472  and  _475
REMARK  201  A    between atoms: _475  and  _476
REMARK  202  A    between atoms: _479  and  _481
REMARK  203  A    between atoms: _481  and  _482
REMARK  204  A    between atoms: _481  and  _484
REMARK  205  A    between atoms: _484  and  _485
REMARK  206  A    between atoms: _485  and  _486
REMARK  207  A    between atoms: _486  and  _487
REMARK  208  A    between atoms: _496  and  _498
REMARK  209  A    between atoms: _498  and  _499
REMARK  210  A    between atoms: _498  and  _501
REMARK  211  A    between atoms: _501  and  _502
REMARK  212  A    between atoms: _506  and  _507
REMARK  213  A    between atoms: _512  and  _514
REMARK  214  A    between atoms: _514  and  _515
REMARK  215  A    between atoms: _514  and  _517
REMARK  216  A    between atoms: _517  and  _518
REMARK  217  A    between atoms: _521  and  _523
REMARK  218  A    between atoms: _523  and  _524
REMARK  219  A    between atoms: _523  and  _526
REMARK  220  A    between atoms: _526  and  _527
REMARK  221  A    between atoms: _527  and  _528
REMARK  222  A    between atoms: _528  and  _529
REMARK  223  A    between atoms: _529  and  _530
REMARK  224  A    between atoms: _534  and  _536
REMARK  225  A    between atoms: _536  and  _537
REMARK  226  A    between atoms: _536  and  _539
REMARK  227  A    between atoms: _539  and  _540
REMARK  228  A    between atoms: _540  and  _541
REMARK  229  A    between atoms: _546  and  _548
REMARK  230  A    between atoms: _548  and  _549
REMARK  231  A    between atoms: _548  and  _551
REMARK  232  A    between atoms: _551  and  _552
REMARK  233  A    between atoms: _555  and  _557
REMARK  234  A    between atoms: _557  and  _558
REMARK  235  A    between atoms: _557  and  _560
REMARK  236  A    between atoms: _560  and  _561
REMARK  237  A    between atoms: _564  and  _566
REMARK  238  A    between atoms: _566  and  _567
REMARK  239  A    between atoms: _566  and  _569
REMARK  240  A    between atoms: _569  and  _570
REMARK  241  A    between atoms: _575  and  _577
REMARK  242  A    between atoms: _577  and  _578
REMARK  243  A    between atoms: _577  and  _580
REMARK  244  A    between atoms: _580  and  _581
REMARK  245  A    between atoms: _584  and  _586
REMARK  246  A    between atoms: _586  and  _587
REMARK  247  A    between atoms: _586  and  _589
REMARK  248  A    between atoms: _589  and  _590
REMARK  249  A    between atoms: _590  and  _591
REMARK  250  A    between atoms: _596  and  _598
REMARK  251  A    between atoms: _598  and  _599
REMARK  252  A    between atoms: _601  and  _603
REMARK  253  A    between atoms: _603  and  _604
REMARK  254  A    between atoms: _603  and  _606
REMARK  255  A    between atoms: _606  and  _607
REMARK  256  A    between atoms: _612  and  _614
REMARK  257  A    between atoms: _614  and  _615
REMARK  258  A    between atoms: _614  and  _617
REMARK  259  A    between atoms: _617  and  _618
REMARK  260  A    between atoms: _621  and  _623
REMARK  261  A    between atoms: _623  and  _624
REMARK  262  A    between atoms: _623  and  _626
REMARK  263  A    between atoms: _626  and  _627
REMARK                            x       y       z     vdW  Elec       q    Type
REMARK                         _______ _______ _______ _____ _____    ______ ____
ROOT
ATOM      1  CG  TRP A   1      88.907  66.228 181.328  0.00  0.00    -0.002 A 
ATOM      2  CD2 TRP A   1      90.083  66.813 181.930  0.00  0.00    +0.013 A 
ATOM      3  CE3 TRP A   1      91.142  66.306 182.700  0.00  0.00    +0.001 A 
ATOM      4  CZ3 TRP A   1      92.140  67.192 183.134  0.00  0.00    +0.000 A 
ATOM      5  CH2 TRP A   1      92.091  68.549 182.794  0.00  0.00    +0.001 A 
ATOM      6  CZ2 TRP A   1      91.068  69.056 182.026  0.00  0.00    +0.017 A 
ATOM      7  CE2 TRP A   1      90.074  68.178 181.606  0.00  0.00    +0.056 A 
ATOM      8  NE1 TRP A   1      88.951  68.411 180.855  0.00  0.00    -0.352 N 
ATOM      9  HE1 TRP A   1      88.666  69.335 180.472  0.00  0.00    +0.166 HD
ATOM     10  CD1 TRP A   1      88.264  67.241 180.688  0.00  0.00    +0.068 A 
ENDROOT
BRANCH   1  11
ATOM     11  CB  TRP A   1      88.502  64.772 181.333  0.00  0.00    +0.053 C 
BRANCH  11  12
ATOM     12  CA  TRP A   1      87.839  64.219 182.591  0.00  0.00    +0.137 C 
BRANCH  12  13
ATOM     13  N   TRP A   1      86.670  65.012 182.971  0.00  0.00    -0.239 NA
ATOM     14  H   TRP A   1      86.609  66.007 182.675  0.00  0.00    +0.142 HD
ENDBRANCH  12  13
BRANCH  12  15
ATOM     15  C   TRP A   1      88.865  64.033 183.718  0.00  0.00    +0.224 C 
ATOM     16  O   TRP A   1      89.736  63.166 183.635  0.00  0.00    -0.287 OA
ENDBRANCH  12  15
ENDBRANCH  11  12
ENDBRANCH   1  11
TORSDOF 4
REMARK  Name = ../refined-set-2016/3d2e/3d2e_pocket.pdb
REMARK  263 active torsions:
REMARK  status: ('A' for Active; 'I' for Inactive)
REMARK    1  A    between atoms: _1  and  _3
REMARK    2  A    between atoms: _3  and  _4
REMARK    3  A    between atoms: _3  and  _6
REMARK    4  A    between atoms: _6  and  _7
REMARK    5  A    between atoms: _10  and  _12
REMARK    6  A    between atoms: _12  and  _13
REMARK    7  A    between atoms: _12  and  _15
REMARK    8  A    between atoms: _15  and  _16
REMARK    9  A    between atoms: _19  and  _21
REMARK   10  A    between atoms: _21  and  _22
REMARK   11  A    between atoms: _24  and  _26
REMARK   12  A    between atoms: _26  and  _27
REMARK   13  A    between atoms: _26  and  _29
REMARK   14  A    between atoms: _29  and  _30
REMARK   15  A    between atoms: _35  and  _37
REMARK   16  A    between atoms: _37  and  _38
REMARK   17  A    between atoms: _37  and  _40
REMARK   18  A    between atoms: _40  and  _41
REMARK   19  A    between atoms: _46  and  _48
REMARK   20  A    between atoms: _48  and  _49
REMARK   21  A    between atoms: _48  and  _51
REMARK   22  A    between atoms: _51  and  _52
REMARK   23  A    between atoms: _57  and  _59
REMARK   24  A    between atoms: _59  and  _60
REMARK   25  A    between atoms: _59  and  _62
REMARK   26  A    between atoms: _62  and  _63
REMARK   27  A    between atoms: _65  and  _67
REMARK   28  A    between atoms: _67  and  _68
REMARK   29  A    between atoms: _67  and  _70
REMARK   30  A    between atoms: _73  and  _75
REMARK   31  A    between atoms: _75  and  _76
REMARK   32  A    between atoms: _75  and  _78
REMARK   33  A    between atoms: _78  and  _79
REMARK   34  A    between atoms: _81  and  _83
REMARK   35  A    between atoms: _83  and  _84
REMARK   36  A    between atoms: _83  and  _86
REMARK   37  A    between atoms: _86  and  _87
REMARK   38  A    between atoms: _90  and  _92
REMARK   39  A    between atoms: _92  and  _93
REMARK   40  A    between atoms: _92  and  _95
REMARK   41  A    between atoms: _95  and  _96
REMARK   42  A    between atoms: _98  and  _100
REMARK   43  A    between atoms: _100  and  _101
REMARK   44  A    between atoms: _100  and  _103
REMARK   45  A    between atoms: _103  and  _104
REMARK   46  A    between atoms: _104  and  _105
REMARK   47  A    between atoms: _105  and  _106
REMARK   48  A    between atoms: _106  and  _107
REMARK   49  A    between atoms: _111  and  _113
REMARK   50  A    between atoms: _113  and  _114
REMARK   51  A    between atoms: _113  and  _116
REMARK   52  A    between atoms: _116  and  _117
REMARK   53  A    between atoms: _117  and  _118
REMARK   54  A    between atoms: _118  and  _119
REMARK   55  A    between atoms: _128  and  _130
REMARK   56  A    between atoms: _130  and  _131
REMARK   57  A    between atoms: _134  and  _136
REMARK   58  A    between atoms: _136  and  _137
REMARK   59  A    between atoms: _136  and  _139
REMARK   60  A    between atoms: _143  and  _144
REMARK   61  A    between atoms: _149  and  _151
REMARK   62  A    between atoms: _151  and  _152
REMARK   63  A    between atoms: _151  and  _154
REMARK   64  A    between atoms: _154  and  _155
REMARK   65  A    between atoms: _165  and  _167
REMARK   66  A    between atoms: _167  and  _168
REMARK   67  A    between atoms: _167  and  _170
REMARK   68  A    between atoms: _170  and  _171
REMARK   69  A    between atoms: _174  and  _176
REMARK   70  A    between atoms: _176  and  _177
REMARK   71  A    between atoms: _176  and  _179
REMARK   72  A    between atoms: _179  and  _180
REMARK   73  A    between atoms: _183  and  _185
REMARK   74  A    between atoms: _185  and  _186
REMARK   75  A    between atoms: _185  and  _188
REMARK   76  A    between atoms: _188  and  _189
REMARK   77  A    between atoms: _192  and  _194
REMARK   78  A    between atoms: _194  and  _195
REMARK   79  A    between atoms: _197  and  _199
REMARK   80  A    between atoms: _199  and  _200
REMARK   81  A    between atoms: _199  and  _202
REMARK   82  A    between atoms: _202  and  _203
REMARK   83  A    between atoms: _208  and  _210
REMARK   84  A    between atoms: _210  and  _211
REMARK   85  A    between atoms: _210  and  _213
REMARK   86  A    between atoms: _213  and  _214
REMARK   87  A    between atoms: _216  and  _218
REMARK   88  A    between atoms: _218  and  _219
REMARK   89  A    between atoms: _218  and  _221
REMARK   90  A    between atoms: _221  and  _222
REMARK   91  A    between atoms: _224  and  _226
REMARK   92  A    between atoms: _226  and  _227
REMARK   93  A    between atoms: _226  and  _229
REMARK   94  A    between atoms: _229  and  _230
REMARK   95  A    between atoms: _235  and  _236
REMARK   96  A    between atoms: _238  and  _240
REMARK   97  A    between atoms: _240  and  _241
REMARK   98  A    between atoms: _240  and  _243
REMARK   99  A    between atoms: _243  and  _244
REMARK  100  A    between atoms: _247  and  _249
REMARK  101  A    between atoms: _249  and  _250
REMARK  102  A    between atoms: _249  and  _252
REMARK  103  A    between atoms: _252  and  _253
REMARK  104  A    between atoms: _256  and  _258
REMARK  105  A    between atoms: _258  and  _259
REMARK  106  A    between atoms: _258  and  _261
REMARK  107  A    between atoms: _261  and  _262
REMARK  108  A    between atoms: _262  and  _263
REMARK  109  A    between atoms: _263  and  _264
REMARK  110  A    between atoms: _264  and  _265
REMARK  111  A    between atoms: _269  and  _271
REMARK  112  A    between atoms: _271  and  _272
REMARK  113  A    between atoms: _271  and  _274
REMARK  114  A    between atoms: _274  and  _275
REMARK  115  A    between atoms: _281  and  _283
REMARK  116  A    between atoms: _283  and  _284
REMARK  117  A    between atoms: _286  and  _288
REMARK  118  A    between atoms: _288  and  _289
REMARK  119  A    between atoms: _291  and  _293
REMARK  120  A    between atoms: _293  and  _294
REMARK  121  A    between atoms: _293  and  _296
REMARK  122  A    between atoms: _296  and  _297
REMARK  123  A    between atoms: _297  and  _298
REMARK  124  A    between atoms: _298  and  _299
REMARK  125  A    between atoms: _308  and  _310
REMARK  126  A    between atoms: _310  and  _311
REMARK  127  A    between atoms: _310  and  _313
REMARK  128  A    between atoms: _313  and  _314
REMARK  129  A    between atoms: _317  and  _319
REMARK  130  A    between atoms: _319  and  _320
REMARK  131  A    between atoms: _319  and  _322
REMARK  132  A    between atoms: _322  and  _323
REMARK  133  A    between atoms: _329  and  _331
REMARK  134  A    between atoms: _331  and  _332
REMARK  135  A    between atoms: _331  and  _334
REMARK  136  A    between atoms: _334  and  _335
REMARK  137  A    between atoms: _338  and  _340
REMARK  138  A    between atoms: _340  and  _341
REMARK  139  A    between atoms: _344  and  _346
REMARK  140  A    between atoms: _346  and  _347
REMARK  141  A    between atoms: _346  and  _349
REMARK  142  A    between atoms: _349  and  _350
REMARK  143  A    between atoms: _350  and  _351
REMARK  144  A    between atoms: _354  and  _356
REMARK  145  A    between atoms: _356  and  _357
REMARK  146  A    between atoms: _356  and  _359
REMARK  147  A    between atoms: _359  and  _360
REMARK  148  A    between atoms: _360  and  _361
REMARK  149  A    between atoms: _361  and  _362
REMARK  150  A    between atoms: _362  and  _363
REMARK  151  A    between atoms: _367  and  _369
REMARK  152  A    between atoms: _369  and  _370
REMARK  153  A    between atoms: _369  and  _372
REMARK  154  A    between atoms: _372  and  _373
REMARK  155  A    between atoms: _376  and  _378
REMARK  156  A    between atoms: _378  and  _379
REMARK  157  A    between atoms: _378  and  _381
REMARK  158  A    between atoms: _381  and  _382
REMARK  159  A    between atoms: _382  and  _383
REMARK  160  A    between atoms: _383  and  _384
REMARK  161  A    between atoms: _384  and  _385
REMARK  162  A    between atoms: _389  and  _391
REMARK  163  A    between atoms: _391  and  _392
REMARK  164  A    between atoms: _391  and  _394
REMARK  165  A    between atoms: _394  and  _395
REMARK  166  A    between atoms: _395  and  _396
REMARK  167  A    between atoms: _396  and  _397
REMARK  168  A    between atoms: _397  and  _398
REMARK  169  A    between atoms: _402  and  _404
REMARK  170  A    between atoms: _404  and  _405
REMARK  171  A    between atoms: _404  and  _407
REMARK  172  A    between atoms: _410  and  _412
REMARK  173  A    between atoms: _412  and  _413
REMARK  174  A    between atoms: _412  and  _415
REMARK  175  A    between atoms: _415  and  _416
REMARK  176  A    between atoms: _419  and  _421
REMARK  177  A    between atoms: _421  and  _422
REMARK  178  A    between atoms: _421  and  _424
REMARK  179  A    between atoms: _424  and  _425
REMARK  180  A    between atoms: _427  and  _429
REMARK  181  A    between atoms: _429  and  _430
REMARK  182  A    between atoms: _433  and  _435
REMARK  183  A    between atoms: _435  and  _436
REMARK  184  A    between atoms: _435  and  _438
REMARK  185  A    between atoms: _438  and  _439
REMARK  186  A    between atoms: _442  and  _444
REMARK  187  A    between atoms: _444  and  _445
REMARK  188  A    between atoms: _444  and  _447
REMARK  189  A    between atoms: _447  and  _448
REMARK  190  A    between atoms: _451  and  _453
REMARK  191  A    between atoms: _453  and  _454
REMARK  192  A    between atoms: _456  and  _458
REMARK  193  A    between atoms: _458  and  _459
REMARK  194  A    between atoms: _461  and  _463
REMARK  195  A    between atoms: _463  and  _464
REMARK  196  A    between atoms: _463  and  _466
REMARK  197  A    between atoms: _466  and  _467
REMARK  198  A    between atoms: _470  and  _472
REMARK  199  A    between atoms: _472  and  _473
REMARK  200  A    between atoms: _472  and  _475
REMARK  201  A    between atoms: _475  and  _476
REMARK  202  A    between atoms: _479  and  _481
REMARK  203  A    between atoms: _481  and  _482
REMARK  204  A    between atoms: _481  and  _484
REMARK  205  A    between atoms: _484  and  _485
REMARK  206  A    between atoms: _485  and  _486
REMARK  207  A    between atoms: _486  and  _487
REMARK  208  A    between atoms: _496  and  _498
REMARK  209  A    between atoms: _498  and  _499
REMARK  210  A    between atoms: _498  and  _501
REMARK  211  A    between atoms: _501  and  _502
REMARK  212  A    between atoms: _506  and  _507
REMARK  213  A    between atoms: _512  and  _514
REMARK  214  A    between atoms: _514  and  _515
REMARK  215  A    between atoms: _514  and  _517
REMARK  216  A    between atoms: _517  and  _518
REMARK  217  A    between atoms: _521  and  _523
REMARK  218  A    between atoms: _523  and  _524
REMARK  219  A    between atoms: _523  and  _526
REMARK  220  A    between atoms: _526  and  _527
REMARK  221  A    between atoms: _527  and  _528
REMARK  222  A    between atoms: _528  and  _529
REMARK  223  A    between atoms: _529  and  _530
REMARK  224  A    between atoms: _534  and  _536
REMARK  225  A    between atoms: _536  and  _537
REMARK  226  A    between atoms: _536  and  _539
REMARK  227  A    between atoms: _539  and  _540
REMARK  228  A    between atoms: _540  and  _541
REMARK  229  A    between atoms: _546  and  _548
REMARK  230  A    between atoms: _548  and  _549
REMARK  231  A    between atoms: _548  and  _551
REMARK  232  A    between atoms: _551  and  _552
REMARK  233  A    between atoms: _555  and  _557
REMARK  234  A    between atoms: _557  and  _558
REMARK  235  A    between atoms: _557  and  _560
REMARK  236  A    between atoms: _560  and  _561
REMARK  237  A    between atoms: _564  and  _566
REMARK  238  A    between atoms: _566  and  _567
REMARK  239  A    between atoms: _566  and  _569
REMARK  240  A    between atoms: _569  and  _570
REMARK  241  A    between atoms: _575  and  _577
REMARK  242  A    between atoms: _577  and  _578
REMARK  243  A    between atoms: _577  and  _580
REMARK  244  A    between atoms: _580  and  _581
REMARK  245  A    between atoms: _584  and  _586
REMARK  246  A    between atoms: _586  and  _587
REMARK  247  A    between atoms: _586  and  _589
REMARK  248  A    between atoms: _589  and  _590
REMARK  249  A    between atoms: _590  and  _591
REMARK  250  A    between atoms: _596  and  _598
REMARK  251  A    between atoms: _598  and  _599
REMARK  252  A    between atoms: _601  and  _603
REMARK  253  A    between atoms: _603  and  _604
REMARK  254  A    between atoms: _603  and  _606
REMARK  255  A    between atoms: _606  and  _607
REMARK  256  A    between atoms: _612  and  _614
REMARK  257  A    between atoms: _614  and  _615
REMARK  258  A    between atoms: _614  and  _617
REMARK  259  A    between atoms: _617  and  _618
REMARK  260  A    between atoms: _621  and  _623
REMARK  261  A    between atoms: _623  and  _624
REMARK  262  A    between atoms: _623  and  _626
REMARK  263  A    between atoms: _626  and  _627
REMARK                            x       y       z     vdW  Elec       q    Type
REMARK                         _______ _______ _______ _____ _____    ______ ____
ROOT
ATOM      1  CA  ASP A   1      81.499  70.894 186.910  0.00  0.00    +0.144 C 
ENDROOT
BRANCH   1   2
ATOM      2  N   ASP A   1      81.953  69.505 187.028  0.00  0.00    -0.239 NA
ATOM      3  H   ASP A   1      82.838  69.217 186.563  0.00  0.00    +0.142 HD
ENDBRANCH   1   2
BRANCH   1   4
ATOM      4  C   ASP A   1      80.160  71.077 186.197  0.00  0.00    +0.225 C 
ATOM      5  O   ASP A   1      79.306  71.813 186.668  0.00  0.00    -0.287 OA
ENDBRANCH   1   4
BRANCH   1   6
ATOM      6  CB  ASP A   1      82.599  71.811 186.340  0.00  0.00    +0.139 C 
BRANCH   6   7
ATOM      7  CG  ASP A   1      83.131  71.346 184.967  0.00  0.00    +0.367 C 
ATOM      8  OD2 ASP A   1      84.123  71.920 184.481  0.00  0.00    -0.246 OA
ATOM      9  OD1 ASP A   1      82.564  70.424 184.363  0.00  0.00    -0.246 OA
ENDBRANCH   6   7
ENDBRANCH   1   6
TORSDOF 4
REMARK  Name = ../refined-set-2016/3d2e/3d2e_pocket.pdb
REMARK  263 active torsions:
REMARK  status: ('A' for Active; 'I' for Inactive)
REMARK    1  A    between atoms: _1  and  _3
REMARK    2  A    between atoms: _3  and  _4
REMARK    3  A    between atoms: _3  and  _6
REMARK    4  A    between atoms: _6  and  _7
REMARK    5  A    between atoms: _10  and  _12
REMARK    6  A    between atoms: _12  and  _13
REMARK    7  A    between atoms: _12  and  _15
REMARK    8  A    between atoms: _15  and  _16
REMARK    9  A    between atoms: _19  and  _21
REMARK   10  A    between atoms: _21  and  _22
REMARK   11  A    between atoms: _24  and  _26
REMARK   12  A    between atoms: _26  and  _27
REMARK   13  A    between atoms: _26  and  _29
REMARK   14  A    between atoms: _29  and  _30
REMARK   15  A    between atoms: _35  and  _37
REMARK   16  A    between atoms: _37  and  _38
REMARK   17  A    between atoms: _37  and  _40
REMARK   18  A    between atoms: _40  and  _41
REMARK   19  A    between atoms: _46  and  _48
REMARK   20  A    between atoms: _48  and  _49
REMARK   21  A    between atoms: _48  and  _51
REMARK   22  A    between atoms: _51  and  _52
REMARK   23  A    between atoms: _57  and  _59
REMARK   24  A    between atoms: _59  and  _60
REMARK   25  A    between atoms: _59  and  _62
REMARK   26  A    between atoms: _62  and  _63
REMARK   27  A    between atoms: _65  and  _67
REMARK   28  A    between atoms: _67  and  _68
REMARK   29  A    between atoms: _67  and  _70
REMARK   30  A    between atoms: _73  and  _75
REMARK   31  A    between atoms: _75  and  _76
REMARK   32  A    between atoms: _75  and  _78
REMARK   33  A    between atoms: _78  and  _79
REMARK   34  A    between atoms: _81  and  _83
REMARK   35  A    between atoms: _83  and  _84
REMARK   36  A    between atoms: _83  and  _86
REMARK   37  A    between atoms: _86  and  _87
REMARK   38  A    between atoms: _90  and  _92
REMARK   39  A    between atoms: _92  and  _93
REMARK   40  A    between atoms: _92  and  _95
REMARK   41  A    between atoms: _95  and  _96
REMARK   42  A    between atoms: _98  and  _100
REMARK   43  A    between atoms: _100  and  _101
REMARK   44  A    between atoms: _100  and  _103
REMARK   45  A    between atoms: _103  and  _104
REMARK   46  A    between atoms: _104  and  _105
REMARK   47  A    between atoms: _105  and  _106
REMARK   48  A    between atoms: _106  and  _107
REMARK   49  A    between atoms: _111  and  _113
REMARK   50  A    between atoms: _113  and  _114
REMARK   51  A    between atoms: _113  and  _116
REMARK   52  A    between atoms: _116  and  _117
REMARK   53  A    between atoms: _117  and  _118
REMARK   54  A    between atoms: _118  and  _119
REMARK   55  A    between atoms: _128  and  _130
REMARK   56  A    between atoms: _130  and  _131
REMARK   57  A    between atoms: _134  and  _136
REMARK   58  A    between atoms: _136  and  _137
REMARK   59  A    between atoms: _136  and  _139
REMARK   60  A    between atoms: _143  and  _144
REMARK   61  A    between atoms: _149  and  _151
REMARK   62  A    between atoms: _151  and  _152
REMARK   63  A    between atoms: _151  and  _154
REMARK   64  A    between atoms: _154  and  _155
REMARK   65  A    between atoms: _165  and  _167
REMARK   66  A    between atoms: _167  and  _168
REMARK   67  A    between atoms: _167  and  _170
REMARK   68  A    between atoms: _170  and  _171
REMARK   69  A    between atoms: _174  and  _176
REMARK   70  A    between atoms: _176  and  _177
REMARK   71  A    between atoms: _176  and  _179
REMARK   72  A    between atoms: _179  and  _180
REMARK   73  A    between atoms: _183  and  _185
REMARK   74  A    between atoms: _185  and  _186
REMARK   75  A    between atoms: _185  and  _188
REMARK   76  A    between atoms: _188  and  _189
REMARK   77  A    between atoms: _192  and  _194
REMARK   78  A    between atoms: _194  and  _195
REMARK   79  A    between atoms: _197  and  _199
REMARK   80  A    between atoms: _199  and  _200
REMARK   81  A    between atoms: _199  and  _202
REMARK   82  A    between atoms: _202  and  _203
REMARK   83  A    between atoms: _208  and  _210
REMARK   84  A    between atoms: _210  and  _211
REMARK   85  A    between atoms: _210  and  _213
REMARK   86  A    between atoms: _213  and  _214
REMARK   87  A    between atoms: _216  and  _218
REMARK   88  A    between atoms: _218  and  _219
REMARK   89  A    between atoms: _218  and  _221
REMARK   90  A    between atoms: _221  and  _222
REMARK   91  A    between atoms: _224  and  _226
REMARK   92  A    between atoms: _226  and  _227
REMARK   93  A    between atoms: _226  and  _229
REMARK   94  A    between atoms: _229  and  _230
REMARK   95  A    between atoms: _235  and  _236
REMARK   96  A    between atoms: _238  and  _240
REMARK   97  A    between atoms: _240  and  _241
REMARK   98  A    between atoms: _240  and  _243
REMARK   99  A    between atoms: _243  and  _244
REMARK  100  A    between atoms: _247  and  _249
REMARK  101  A    between atoms: _249  and  _250
REMARK  102  A    between atoms: _249  and  _252
REMARK  103  A    between atoms: _252  and  _253
REMARK  104  A    between atoms: _256  and  _258
REMARK  105  A    between atoms: _258  and  _259
REMARK  106  A    between atoms: _258  and  _261
REMARK  107  A    between atoms: _261  and  _262
REMARK  108  A    between atoms: _262  and  _263
REMARK  109  A    between atoms: _263  and  _264
REMARK  110  A    between atoms: _264  and  _265
REMARK  111  A    between atoms: _269  and  _271
REMARK  112  A    between atoms: _271  and  _272
REMARK  113  A    between atoms: _271  and  _274
REMARK  114  A    between atoms: _274  and  _275
REMARK  115  A    between atoms: _281  and  _283
REMARK  116  A    between atoms: _283  and  _284
REMARK  117  A    between atoms: _286  and  _288
REMARK  118  A    between atoms: _288  and  _289
REMARK  119  A    between atoms: _291  and  _293
REMARK  120  A    between atoms: _293  and  _294
REMARK  121  A    between atoms: _293  and  _296
REMARK  122  A    between atoms: _296  and  _297
REMARK  123  A    between atoms: _297  and  _298
REMARK  124  A    between atoms: _298  and  _299
REMARK  125  A    between atoms: _308  and  _310
REMARK  126  A    between atoms: _310  and  _311
REMARK  127  A    between atoms: _310  and  _313
REMARK  128  A    between atoms: _313  and  _314
REMARK  129  A    between atoms: _317  and  _319
REMARK  130  A    between atoms: _319  and  _320
REMARK  131  A    between atoms: _319  and  _322
REMARK  132  A    between atoms: _322  and  _323
REMARK  133  A    between atoms: _329  and  _331
REMARK  134  A    between atoms: _331  and  _332
REMARK  135  A    between atoms: _331  and  _334
REMARK  136  A    between atoms: _334  and  _335
REMARK  137  A    between atoms: _338  and  _340
REMARK  138  A    between atoms: _340  and  _341
REMARK  139  A    between atoms: _344  and  _346
REMARK  140  A    between atoms: _346  and  _347
REMARK  141  A    between atoms: _346  and  _349
REMARK  142  A    between atoms: _349  and  _350
REMARK  143  A    between atoms: _350  and  _351
REMARK  144  A    between atoms: _354  and  _356
REMARK  145  A    between atoms: _356  and  _357
REMARK  146  A    between atoms: _356  and  _359
REMARK  147  A    between atoms: _359  and  _360
REMARK  148  A    between atoms: _360  and  _361
REMARK  149  A    between atoms: _361  and  _362
REMARK  150  A    between atoms: _362  and  _363
REMARK  151  A    between atoms: _367  and  _369
REMARK  152  A    between atoms: _369  and  _370
REMARK  153  A    between atoms: _369  and  _372
REMARK  154  A    between atoms: _372  and  _373
REMARK  155  A    between atoms: _376  and  _378
REMARK  156  A    between atoms: _378  and  _379
REMARK  157  A    between atoms: _378  and  _381
REMARK  158  A    between atoms: _381  and  _382
REMARK  159  A    between atoms: _382  and  _383
REMARK  160  A    between atoms: _383  and  _384
REMARK  161  A    between atoms: _384  and  _385
REMARK  162  A    between atoms: _389  and  _391
REMARK  163  A    between atoms: _391  and  _392
REMARK  164  A    between atoms: _391  and  _394
REMARK  165  A    between atoms: _394  and  _395
REMARK  166  A    between atoms: _395  and  _396
REMARK  167  A    between atoms: _396  and  _397
REMARK  168  A    between atoms: _397  and  _398
REMARK  169  A    between atoms: _402  and  _404
REMARK  170  A    between atoms: _404  and  _405
REMARK  171  A    between atoms: _404  and  _407
REMARK  172  A    between atoms: _410  and  _412
REMARK  173  A    between atoms: _412  and  _413
REMARK  174  A    between atoms: _412  and  _415
REMARK  175  A    between atoms: _415  and  _416
REMARK  176  A    between atoms: _419  and  _421
REMARK  177  A    between atoms: _421  and  _422
REMARK  178  A    between atoms: _421  and  _424
REMARK  179  A    between atoms: _424  and  _425
REMARK  180  A    between atoms: _427  and  _429
REMARK  181  A    between atoms: _429  and  _430
REMARK  182  A    between atoms: _433  and  _435
REMARK  183  A    between atoms: _435  and  _436
REMARK  184  A    between atoms: _435  and  _438
REMARK  185  A    between atoms: _438  and  _439
REMARK  186  A    between atoms: _442  and  _444
REMARK  187  A    between atoms: _444  and  _445
REMARK  188  A    between atoms: _444  and  _447
REMARK  189  A    between atoms: _447  and  _448
REMARK  190  A    between atoms: _451  and  _453
REMARK  191  A    between atoms: _453  and  _454
REMARK  192  A    between atoms: _456  and  _458
REMARK  193  A    between atoms: _458  and  _459
REMARK  194  A    between atoms: _461  and  _463
REMARK  195  A    between atoms: _463  and  _464
REMARK  196  A    between atoms: _463  and  _466
REMARK  197  A    between atoms: _466  and  _467
REMARK  198  A    between atoms: _470  and  _472
REMARK  199  A    between atoms: _472  and  _473
REMARK  200  A    between atoms: _472  and  _475
REMARK  201  A    between atoms: _475  and  _476
REMARK  202  A    between atoms: _479  and  _481
REMARK  203  A    between atoms: _481  and  _482
REMARK  204  A    between atoms: _481  and  _484
REMARK  205  A    between atoms: _484  and  _485
REMARK  206  A    between atoms: _485  and  _486
REMARK  207  A    between atoms: _486  and  _487
REMARK  208  A    between atoms: _496  and  _498
REMARK  209  A    between atoms: _498  and  _499
REMARK  210  A    between atoms: _498  and  _501
REMARK  211  A    between atoms: _501  and  _502
REMARK  212  A    between atoms: _506  and  _507
REMARK  213  A    between atoms: _512  and  _514
REMARK  214  A    between atoms: _514  and  _515
REMARK  215  A    between atoms: _514  and  _517
REMARK  216  A    between atoms: _517  and  _518
REMARK  217  A    between atoms: _521  and  _523
REMARK  218  A    between atoms: _523  and  _524
REMARK  219  A    between atoms: _523  and  _526
REMARK  220  A    between atoms: _526  and  _527
REMARK  221  A    between atoms: _527  and  _528
REMARK  222  A    between atoms: _528  and  _529
REMARK  223  A    between atoms: _529  and  _530
REMARK  224  A    between atoms: _534  and  _536
REMARK  225  A    between atoms: _536  and  _537
REMARK  226  A    between atoms: _536  and  _539
REMARK  227  A    between atoms: _539  and  _540
REMARK  228  A    between atoms: _540  and  _541
REMARK  229  A    between atoms: _546  and  _548
REMARK  230  A    between atoms: _548  and  _549
REMARK  231  A    between atoms: _548  and  _551
REMARK  232  A    between atoms: _551  and  _552
REMARK  233  A    between atoms: _555  and  _557
REMARK  234  A    between atoms: _557  and  _558
REMARK  235  A    between atoms: _557  and  _560
REMARK  236  A    between atoms: _560  and  _561
REMARK  237  A    between atoms: _564  and  _566
REMARK  238  A    between atoms: _566  and  _567
REMARK  239  A    between atoms: _566  and  _569
REMARK  240  A    between atoms: _569  and  _570
REMARK  241  A    between atoms: _575  and  _577
REMARK  242  A    between atoms: _577  and  _578
REMARK  243  A    between atoms: _577  and  _580
REMARK  244  A    between atoms: _580  and  _581
REMARK  245  A    between atoms: _584  and  _586
REMARK  246  A    between atoms: _586  and  _587
REMARK  247  A    between atoms: _586  and  _589
REMARK  248  A    between atoms: _589  and  _590
REMARK  249  A    between atoms: _590  and  _591
REMARK  250  A    between atoms: _596  and  _598
REMARK  251  A    between atoms: _598  and  _599
REMARK  252  A    between atoms: _601  and  _603
REMARK  253  A    between atoms: _603  and  _604
REMARK  254  A    between atoms: _603  and  _606
REMARK  255  A    between atoms: _606  and  _607
REMARK  256  A    between atoms: _612  and  _614
REMARK  257  A    between atoms: _614  and  _615
REMARK  258  A    between atoms: _614  and  _617
REMARK  259  A    between atoms: _617  and  _618
REMARK  260  A    between atoms: _621  and  _623
REMARK  261  A    between atoms: _623  and  _624
REMARK  262  A    between atoms: _623  and  _626
REMARK  263  A    between atoms: _626  and  _627
REMARK                            x       y       z     vdW  Elec       q    Type
REMARK                         _______ _______ _______ _____ _____    ______ ____
ROOT
ATOM      1  CA  SER A   5      90.958  74.912 178.093  0.00  0.00    +0.178 C 
ENDROOT
BRANCH   1   2
ATOM      2  C   SER A   5      90.168  73.657 177.713  0.00  0.00    +0.243 C 
ATOM      3  N   SER A   6      88.899  73.544 178.149  0.00  0.00    -0.295 N 
ATOM      4  H   SER A   6      88.473  74.353 178.645  0.00  0.00    +0.150 HD
ATOM      5  O   SER A   5      90.716  72.807 177.027  0.00  0.00    -0.273 OA
BRANCH   3   6
ATOM      6  CA  SER A   6      88.080  72.327 177.958  0.00  0.00    +0.178 C 
BRANCH   6   7
ATOM      7  C   SER A   6      86.740  72.560 177.269  0.00  0.00    +0.243 C 
ATOM      8  O   SER A   6      86.147  73.647 177.361  0.00  0.00    -0.273 OA
ATOM      9  N   TYR A   7      86.263  71.505 176.614  0.00  0.00    -0.297 N 
ATOM     10  H   TYR A   7      86.860  70.655 176.566  0.00  0.00    +0.150 HD
BRANCH   9  11
ATOM     11  CA  TYR A   7      84.953  71.458 175.954  0.00  0.00    +0.153 C 
BRANCH  11  12
ATOM     12  C   TYR A   7      84.229  70.204 176.458  0.00  0.00    +0.241 C 
ATOM     13  N   THR A   8      83.140  70.401 177.209  0.00  0.00    -0.296 N 
ATOM     14  H   THR A   8      82.819  71.377 177.368  0.00  0.00    +0.150 HD
ATOM     15  O   TYR A   7      84.652  69.094 176.167  0.00  0.00    -0.273 OA
BRANCH  13  16
ATOM     16  CA  THR A   8      82.376  69.307 177.820  0.00  0.00    +0.164 C 
BRANCH  16  17
ATOM     17  C   THR A   8      80.917  69.287 177.357  0.00  0.00    +0.229 C 
ATOM     18  O   THR A   8      80.229  70.297 177.434  0.00  0.00    -0.286 OA
ENDBRANCH  16  17
BRANCH  16  19
ATOM     19  CB  THR A   8      82.387  69.427 179.366  0.00  0.00    +0.136 C 
ATOM     20  CG2 THR A   8      81.606  68.275 180.038  0.00  0.00    +0.034 C 
BRANCH  19  21
ATOM     21  OG1 THR A   8      83.740  69.425 179.832  0.00  0.00    -0.382 OA
ATOM     22  HG1 THR A   8      83.748  69.502 180.819  0.00  0.00    +0.210 HD
ENDBRANCH  19  21
ENDBRANCH  16  19
ENDBRANCH  13  16
ENDBRANCH  11  12
BRANCH  11  23
ATOM     23  CB  TYR A   7      85.166  71.415 174.423  0.00  0.00    +0.055 C 
BRANCH  23  24
ATOM     24  CG  TYR A   7      83.982  71.120 173.505  0.00  0.00    -0.020 A 
ATOM     25  CD2 TYR A   7      82.692  70.889 173.990  0.00  0.00    -0.001 A 
ATOM     26  CE2 TYR A   7      81.621  70.613 173.103  0.00  0.00    +0.036 A 
ATOM     27  CZ  TYR A   7      81.860  70.578 171.729  0.00  0.00    +0.134 A 
ATOM     28  CE1 TYR A   7      83.139  70.815 171.242  0.00  0.00    +0.036 A 
ATOM     29  CD1 TYR A   7      84.177  71.088 172.123  0.00  0.00    -0.001 A 
BRANCH  27  30
ATOM     30  OH  TYR A   7      80.837  70.302 170.829  0.00  0.00    -0.506 OA
ATOM     31  HH  TYR A   7      81.196  70.321 169.907  0.00  0.00    +0.292 HD
ENDBRANCH  27  30
ENDBRANCH  23  24
ENDBRANCH  11  23
ENDBRANCH   9  11
ENDBRANCH   6   7
BRANCH   6  32
ATOM     32  CB  SER A   6      87.798  71.645 179.298  0.00  0.00    +0.166 C 
BRANCH  32  33
ATOM     33  OG  SER A   6      88.991  71.222 179.907  0.00  0.00    -0.380 OA
ATOM     34  H   SER A   6      89.575  72.005 180.065  0.00  0.00    +0.211 HD
ENDBRANCH  32  33
ENDBRANCH   6  32
ENDBRANCH   3   6
ENDBRANCH   1   2
BRANCH   1  36
ATOM     35  C   HIS A   4      90.478  77.296 177.974  0.00  0.00    +0.241 C 
ATOM     36  N   SER A   5      90.151  76.073 178.389  0.00  0.00    -0.295 N 
ATOM     37  H   SER A   5      89.282  75.949 178.947  0.00  0.00    +0.150 HD
ATOM     38  O   HIS A   4      91.314  77.511 177.107  0.00  0.00    -0.273 OA
BRANCH  35  39
ATOM     39  CA  HIS A   4      89.708  78.459 178.593  0.00  0.00    +0.155 C 
BRANCH  39  41
ATOM     40  C   GLY A   3      87.400  77.824 178.098  0.00  0.00    +0.243 C 
ATOM     41  N   HIS A   4      88.368  78.065 178.980  0.00  0.00    -0.297 N 
ATOM     42  H   HIS A   4      88.153  77.966 179.993  0.00  0.00    +0.150 HD
ATOM     43  O   GLY A   3      87.577  77.855 176.888  0.00  0.00    -0.273 OA
BRANCH  40  44
ATOM     44  CA  GLY A   3      86.032  77.479 178.677  0.00  0.00    +0.176 C 
BRANCH  44  46
ATOM     45  C   ILE A   2      84.193  76.674 177.301  0.00  0.00    +0.241 C 
ATOM     46  N   GLY A   3      85.347  76.447 177.933  0.00  0.00    -0.295 N 
ATOM     47  H   GLY A   3      85.767  75.496 177.888  0.00  0.00    +0.150 HD
ATOM     48  O   ILE A   2      83.613  77.761 177.307  0.00  0.00    -0.273 OA
BRANCH  45  49
ATOM     49  CA  ILE A   2      83.589  75.479 176.574  0.00  0.00    +0.148 C 
BRANCH  49  52
ATOM     50  C   ASP A   1      81.930  74.110 177.706  0.00  0.00    +0.239 C 
ATOM     51  O   ASP A   1      82.593  73.048 177.580  0.00  0.00    -0.274 OA
ATOM     52  N   ILE A   2      82.269  75.272 177.144  0.00  0.00    -0.297 N 
ATOM     53  H   ILE A   2      81.574  76.045 177.113  0.00  0.00    +0.150 HD
BRANCH  50  54
ATOM     54  CA  ASP A   1      80.624  74.126 178.472  0.00  0.00    +0.156 C 
BRANCH  54  55
ATOM     55  N   ASP A   1      79.756  73.199 177.801  0.00  0.00    -0.238 NA
ATOM     56  H   ASP A   1      80.050  72.204 177.733  0.00  0.00    +0.142 HD
ENDBRANCH  54  55
BRANCH  54  57
ATOM     57  CB  ASP A   1      80.813  73.717 179.947  0.00  0.00    +0.140 C 
BRANCH  57  58
ATOM     58  CG  ASP A   1      81.774  74.661 180.744  0.00  0.00    +0.367 C 
ATOM     59  OD2 ASP A   1      82.260  74.220 181.799  0.00  0.00    -0.246 OA
ATOM     60  OD1 ASP A   1      82.066  75.820 180.368  0.00  0.00    -0.246 OA
ENDBRANCH  57  58
ENDBRANCH  54  57
ENDBRANCH  50  54
ENDBRANCH  49  52
BRANCH  49  61
ATOM     61  CB  ILE A   2      83.575  75.676 175.013  0.00  0.00    +0.027 C 
ATOM     62  CG2 ILE A   2      84.976  75.633 174.483  0.00  0.00    +0.002 C 
BRANCH  61  63
ATOM     63  CG1 ILE A   2      82.723  74.596 174.330  0.00  0.00    +0.002 C 
ATOM     64  CD1 ILE A   2      82.615  74.725 172.837  0.00  0.00    +0.000 C 
ENDBRANCH  61  63
ENDBRANCH  49  61
ENDBRANCH  45  49
ENDBRANCH  44  46
ENDBRANCH  40  44
ENDBRANCH  39  41
BRANCH  39  65
ATOM     65  CB  HIS A   4      90.438  79.011 179.813  0.00  0.00    +0.076 C 
BRANCH  65  66
ATOM     66  CG  HIS A   4      91.781  79.599 179.519  0.00  0.00    +0.082 A 
ATOM     67  ND1 HIS A   4      92.955  79.035 179.983  0.00  0.00    -0.227 NA
ATOM     68  CE1 HIS A   4      93.977  79.767 179.578  0.00  0.00    +0.199 A 
ATOM     69  NE2 HIS A   4      93.512  80.792 178.883  0.00  0.00    -0.221 NA
ATOM     70  CD2 HIS A   4      92.142  80.708 178.824  0.00  0.00    +0.115 A 
ENDBRANCH  65  66
ENDBRANCH  39  65
ENDBRANCH  35  39
ENDBRANCH   1  36
BRANCH   1  71
ATOM     71  CB  SER A   5      91.885  74.612 179.278  0.00  0.00    +0.166 C 
BRANCH  71  72
ATOM     72  OG  SER A   5      91.143  74.285 180.444  0.00  0.00    -0.380 OA
ATOM     73  H   SER A   5      90.558  75.046 180.686  0.00  0.00    +0.211 HD
ENDBRANCH  71  72
ENDBRANCH   1  71
TORSDOF 31
REMARK  Name = ../refined-set-2016/3d2e/3d2e_pocket.pdb
REMARK  263 active torsions:
REMARK  status: ('A' for Active; 'I' for Inactive)
REMARK    1  A    between atoms: _1  and  _3
REMARK    2  A    between atoms: _3  and  _4
REMARK    3  A    between atoms: _3  and  _6
REMARK    4  A    between atoms: _6  and  _7
REMARK    5  A    between atoms: _10  and  _12
REMARK    6  A    between atoms: _12  and  _13
REMARK    7  A    between atoms: _12  and  _15
REMARK    8  A    between atoms: _15  and  _16
REMARK    9  A    between atoms: _19  and  _21
REMARK   10  A    between atoms: _21  and  _22
REMARK   11  A    between atoms: _24  and  _26
REMARK   12  A    between atoms: _26  and  _27
REMARK   13  A    between atoms: _26  and  _29
REMARK   14  A    between atoms: _29  and  _30
REMARK   15  A    between atoms: _35  and  _37
REMARK   16  A    between atoms: _37  and  _38
REMARK   17  A    between atoms: _37  and  _40
REMARK   18  A    between atoms: _40  and  _41
REMARK   19  A    between atoms: _46  and  _48
REMARK   20  A    between atoms: _48  and  _49
REMARK   21  A    between atoms: _48  and  _51
REMARK   22  A    between atoms: _51  and  _52
REMARK   23  A    between atoms: _57  and  _59
REMARK   24  A    between atoms: _59  and  _60
REMARK   25  A    between atoms: _59  and  _62
REMARK   26  A    between atoms: _62  and  _63
REMARK   27  A    between atoms: _65  and  _67
REMARK   28  A    between atoms: _67  and  _68
REMARK   29  A    between atoms: _67  and  _70
REMARK   30  A    between atoms: _73  and  _75
REMARK   31  A    between atoms: _75  and  _76
REMARK   32  A    between atoms: _75  and  _78
REMARK   33  A    between atoms: _78  and  _79
REMARK   34  A    between atoms: _81  and  _83
REMARK   35  A    between atoms: _83  and  _84
REMARK   36  A    between atoms: _83  and  _86
REMARK   37  A    between atoms: _86  and  _87
REMARK   38  A    between atoms: _90  and  _92
REMARK   39  A    between atoms: _92  and  _93
REMARK   40  A    between atoms: _92  and  _95
REMARK   41  A    between atoms: _95  and  _96
REMARK   42  A    between atoms: _98  and  _100
REMARK   43  A    between atoms: _100  and  _101
REMARK   44  A    between atoms: _100  and  _103
REMARK   45  A    between atoms: _103  and  _104
REMARK   46  A    between atoms: _104  and  _105
REMARK   47  A    between atoms: _105  and  _106
REMARK   48  A    between atoms: _106  and  _107
REMARK   49  A    between atoms: _111  and  _113
REMARK   50  A    between atoms: _113  and  _114
REMARK   51  A    between atoms: _113  and  _116
REMARK   52  A    between atoms: _116  and  _117
REMARK   53  A    between atoms: _117  and  _118
REMARK   54  A    between atoms: _118  and  _119
REMARK   55  A    between atoms: _128  and  _130
REMARK   56  A    between atoms: _130  and  _131
REMARK   57  A    between atoms: _134  and  _136
REMARK   58  A    between atoms: _136  and  _137
REMARK   59  A    between atoms: _136  and  _139
REMARK   60  A    between atoms: _143  and  _144
REMARK   61  A    between atoms: _149  and  _151
REMARK   62  A    between atoms: _151  and  _152
REMARK   63  A    between atoms: _151  and  _154
REMARK   64  A    between atoms: _154  and  _155
REMARK   65  A    between atoms: _165  and  _167
REMARK   66  A    between atoms: _167  and  _168
REMARK   67  A    between atoms: _167  and  _170
REMARK   68  A    between atoms: _170  and  _171
REMARK   69  A    between atoms: _174  and  _176
REMARK   70  A    between atoms: _176  and  _177
REMARK   71  A    between atoms: _176  and  _179
REMARK   72  A    between atoms: _179  and  _180
REMARK   73  A    between atoms: _183  and  _185
REMARK   74  A    between atoms: _185  and  _186
REMARK   75  A    between atoms: _185  and  _188
REMARK   76  A    between atoms: _188  and  _189
REMARK   77  A    between atoms: _192  and  _194
REMARK   78  A    between atoms: _194  and  _195
REMARK   79  A    between atoms: _197  and  _199
REMARK   80  A    between atoms: _199  and  _200
REMARK   81  A    between atoms: _199  and  _202
REMARK   82  A    between atoms: _202  and  _203
REMARK   83  A    between atoms: _208  and  _210
REMARK   84  A    between atoms: _210  and  _211
REMARK   85  A    between atoms: _210  and  _213
REMARK   86  A    between atoms: _213  and  _214
REMARK   87  A    between atoms: _216  and  _218
REMARK   88  A    between atoms: _218  and  _219
REMARK   89  A    between atoms: _218  and  _221
REMARK   90  A    between atoms: _221  and  _222
REMARK   91  A    between atoms: _224  and  _226
REMARK   92  A    between atoms: _226  and  _227
REMARK   93  A    between atoms: _226  and  _229
REMARK   94  A    between atoms: _229  and  _230
REMARK   95  A    between atoms: _235  and  _236
REMARK   96  A    between atoms: _238  and  _240
REMARK   97  A    between atoms: _240  and  _241
REMARK   98  A    between atoms: _240  and  _243
REMARK   99  A    between atoms: _243  and  _244
REMARK  100  A    between atoms: _247  and  _249
REMARK  101  A    between atoms: _249  and  _250
REMARK  102  A    between atoms: _249  and  _252
REMARK  103  A    between atoms: _252  and  _253
REMARK  104  A    between atoms: _256  and  _258
REMARK  105  A    between atoms: _258  and  _259
REMARK  106  A    between atoms: _258  and  _261
REMARK  107  A    between atoms: _261  and  _262
REMARK  108  A    between atoms: _262  and  _263
REMARK  109  A    between atoms: _263  and  _264
REMARK  110  A    between atoms: _264  and  _265
REMARK  111  A    between atoms: _269  and  _271
REMARK  112  A    between atoms: _271  and  _272
REMARK  113  A    between atoms: _271  and  _274
REMARK  114  A    between atoms: _274  and  _275
REMARK  115  A    between atoms: _281  and  _283
REMARK  116  A    between atoms: _283  and  _284
REMARK  117  A    between atoms: _286  and  _288
REMARK  118  A    between atoms: _288  and  _289
REMARK  119  A    between atoms: _291  and  _293
REMARK  120  A    between atoms: _293  and  _294
REMARK  121  A    between atoms: _293  and  _296
REMARK  122  A    between atoms: _296  and  _297
REMARK  123  A    between atoms: _297  and  _298
REMARK  124  A    between atoms: _298  and  _299
REMARK  125  A    between atoms: _308  and  _310
REMARK  126  A    between atoms: _310  and  _311
REMARK  127  A    between atoms: _310  and  _313
REMARK  128  A    between atoms: _313  and  _314
REMARK  129  A    between atoms: _317  and  _319
REMARK  130  A    between atoms: _319  and  _320
REMARK  131  A    between atoms: _319  and  _322
REMARK  132  A    between atoms: _322  and  _323
REMARK  133  A    between atoms: _329  and  _331
REMARK  134  A    between atoms: _331  and  _332
REMARK  135  A    between atoms: _331  and  _334
REMARK  136  A    between atoms: _334  and  _335
REMARK  137  A    between atoms: _338  and  _340
REMARK  138  A    between atoms: _340  and  _341
REMARK  139  A    between atoms: _344  and  _346
REMARK  140  A    between atoms: _346  and  _347
REMARK  141  A    between atoms: _346  and  _349
REMARK  142  A    between atoms: _349  and  _350
REMARK  143  A    between atoms: _350  and  _351
REMARK  144  A    between atoms: _354  and  _356
REMARK  145  A    between atoms: _356  and  _357
REMARK  146  A    between atoms: _356  and  _359
REMARK  147  A    between atoms: _359  and  _360
REMARK  148  A    between atoms: _360  and  _361
REMARK  149  A    between atoms: _361  and  _362
REMARK  150  A    between atoms: _362  and  _363
REMARK  151  A    between atoms: _367  and  _369
REMARK  152  A    between atoms: _369  and  _370
REMARK  153  A    between atoms: _369  and  _372
REMARK  154  A    between atoms: _372  and  _373
REMARK  155  A    between atoms: _376  and  _378
REMARK  156  A    between atoms: _378  and  _379
REMARK  157  A    between atoms: _378  and  _381
REMARK  158  A    between atoms: _381  and  _382
REMARK  159  A    between atoms: _382  and  _383
REMARK  160  A    between atoms: _383  and  _384
REMARK  161  A    between atoms: _384  and  _385
REMARK  162  A    between atoms: _389  and  _391
REMARK  163  A    between atoms: _391  and  _392
REMARK  164  A    between atoms: _391  and  _394
REMARK  165  A    between atoms: _394  and  _395
REMARK  166  A    between atoms: _395  and  _396
REMARK  167  A    between atoms: _396  and  _397
REMARK  168  A    between atoms: _397  and  _398
REMARK  169  A    between atoms: _402  and  _404
REMARK  170  A    between atoms: _404  and  _405
REMARK  171  A    between atoms: _404  and  _407
REMARK  172  A    between atoms: _410  and  _412
REMARK  173  A    between atoms: _412  and  _413
REMARK  174  A    between atoms: _412  and  _415
REMARK  175  A    between atoms: _415  and  _416
REMARK  176  A    between atoms: _419  and  _421
REMARK  177  A    between atoms: _421  and  _422
REMARK  178  A    between atoms: _421  and  _424
REMARK  179  A    between atoms: _424  and  _425
REMARK  180  A    between atoms: _427  and  _429
REMARK  181  A    between atoms: _429  and  _430
REMARK  182  A    between atoms: _433  and  _435
REMARK  183  A    between atoms: _435  and  _436
REMARK  184  A    between atoms: _435  and  _438
REMARK  185  A    between atoms: _438  and  _439
REMARK  186  A    between atoms: _442  and  _444
REMARK  187  A    between atoms: _444  and  _445
REMARK  188  A    between atoms: _444  and  _447
REMARK  189  A    between atoms: _447  and  _448
REMARK  190  A    between atoms: _451  and  _453
REMARK  191  A    between atoms: _453  and  _454
REMARK  192  A    between atoms: _456  and  _458
REMARK  193  A    between atoms: _458  and  _459
REMARK  194  A    between atoms: _461  and  _463
REMARK  195  A    between atoms: _463  and  _464
REMARK  196  A    between atoms: _463  and  _466
REMARK  197  A    between atoms: _466  and  _467
REMARK  198  A    between atoms: _470  and  _472
REMARK  199  A    between atoms: _472  and  _473
REMARK  200  A    between atoms: _472  and  _475
REMARK  201  A    between atoms: _475  and  _476
REMARK  202  A    between atoms: _479  and  _481
REMARK  203  A    between atoms: _481  and  _482
REMARK  204  A    between atoms: _481  and  _484
REMARK  205  A    between atoms: _484  and  _485
REMARK  206  A    between atoms: _485  and  _486
REMARK  207  A    between atoms: _486  and  _487
REMARK  208  A    between atoms: _496  and  _498
REMARK  209  A    between atoms: _498  and  _499
REMARK  210  A    between atoms: _498  and  _501
REMARK  211  A    between atoms: _501  and  _502
REMARK  212  A    between atoms: _506  and  _507
REMARK  213  A    between atoms: _512  and  _514
REMARK  214  A    between atoms: _514  and  _515
REMARK  215  A    between atoms: _514  and  _517
REMARK  216  A    between atoms: _517  and  _518
REMARK  217  A    between atoms: _521  and  _523
REMARK  218  A    between atoms: _523  and  _524
REMARK  219  A    between atoms: _523  and  _526
REMARK  220  A    between atoms: _526  and  _527
REMARK  221  A    between atoms: _527  and  _528
REMARK  222  A    between atoms: _528  and  _529
REMARK  223  A    between atoms: _529  and  _530
REMARK  224  A    between atoms: _534  and  _536
REMARK  225  A    between atoms: _536  and  _537
REMARK  226  A    between atoms: _536  and  _539
REMARK  227  A    between atoms: _539  and  _540
REMARK  228  A    between atoms: _540  and  _541
REMARK  229  A    between atoms: _546  and  _548
REMARK  230  A    between atoms: _548  and  _549
REMARK  231  A    between atoms: _548  and  _551
REMARK  232  A    between atoms: _551  and  _552
REMARK  233  A    between atoms: _555  and  _557
REMARK  234  A    between atoms: _557  and  _558
REMARK  235  A    between atoms: _557  and  _560
REMARK  236  A    between atoms: _560  and  _561
REMARK  237  A    between atoms: _564  and  _566
REMARK  238  A    between atoms: _566  and  _567
REMARK  239  A    between atoms: _566  and  _569
REMARK  240  A    between atoms: _569  and  _570
REMARK  241  A    between atoms: _575  and  _577
REMARK  242  A    between atoms: _577  and  _578
REMARK  243  A    between atoms: _577  and  _580
REMARK  244  A    between atoms: _580  and  _581
REMARK  245  A    between atoms: _584  and  _586
REMARK  246  A    between atoms: _586  and  _587
REMARK  247  A    between atoms: _586  and  _589
REMARK  248  A    between atoms: _589  and  _590
REMARK  249  A    between atoms: _590  and  _591
REMARK  250  A    between atoms: _596  and  _598
REMARK  251  A    between atoms: _598  and  _599
REMARK  252  A    between atoms: _601  and  _603
REMARK  253  A    between atoms: _603  and  _604
REMARK  254  A    between atoms: _603  and  _606
REMARK  255  A    between atoms: _606  and  _607
REMARK  256  A    between atoms: _612  and  _614
REMARK  257  A    between atoms: _614  and  _615
REMARK  258  A    between atoms: _614  and  _617
REMARK  259  A    between atoms: _617  and  _618
REMARK  260  A    between atoms: _621  and  _623
REMARK  261  A    between atoms: _623  and  _624
REMARK  262  A    between atoms: _623  and  _626
REMARK  263  A    between atoms: _626  and  _627
REMARK                            x       y       z     vdW  Elec       q    Type
REMARK                         _______ _______ _______ _____ _____    ______ ____
ROOT
ATOM      1  C   ASP A   1      88.538  68.292 175.768  0.00  0.00    +0.239 C 
ATOM      2  N   LYS A   2      89.516  67.747 176.482  0.00  0.00    -0.298 N 
ATOM      3  H   LYS A   2      89.675  66.722 176.407  0.00  0.00    +0.150 HD
ATOM      4  O   ASP A   1      88.257  69.476 175.844  0.00  0.00    -0.274 OA
ENDROOT
BRANCH   1   5
ATOM      5  CA  ASP A   1      87.731  67.349 174.853  0.00  0.00    +0.156 C 
BRANCH   5   6
ATOM      6  N   ASP A   1      86.446  67.108 175.518  0.00  0.00    -0.238 NA
ATOM      7  H   ASP A   1      85.814  67.917 175.684  0.00  0.00    +0.142 HD
ENDBRANCH   5   6
BRANCH   5   8
ATOM      8  CB  ASP A   1      87.521  67.978 173.468  0.00  0.00    +0.140 C 
BRANCH   8   9
ATOM      9  CG  ASP A   1      88.797  67.994 172.606  0.00  0.00    +0.367 C 
ATOM     10  OD2 ASP A   1      89.931  67.929 173.118  0.00  0.00    -0.246 OA
ATOM     11  OD1 ASP A   1      88.660  68.065 171.379  0.00  0.00    -0.246 OA
ENDBRANCH   8   9
ENDBRANCH   5   8
ENDBRANCH   1   5
BRANCH   2  12
ATOM     12  CA  LYS A   2      90.377  68.524 177.368  0.00  0.00    +0.137 C 
BRANCH  12  13
ATOM     13  C   LYS A   2      91.381  69.405 176.608  0.00  0.00    +0.227 C 
ATOM     14  O   LYS A   2      92.106  70.180 177.217  0.00  0.00    -0.286 OA
ENDBRANCH  12  13
BRANCH  12  15
ATOM     15  CB  LYS A   2      91.118  67.593 178.338  0.00  0.00    +0.028 C 
BRANCH  15  16
ATOM     16  CG  LYS A   2      92.181  66.686 177.649  0.00  0.00    -0.000 C 
BRANCH  16  17
ATOM     17  CD  LYS A   2      92.727  65.618 178.584  0.00  0.00    -0.024 C 
BRANCH  17  18
ATOM     18  CE  LYS A   2      93.409  66.236 179.783  0.00  0.00    -0.086 C 
BRANCH  18  19
ATOM     19  NZ  LYS A   2      93.874  65.090 180.646  0.00  0.00    +0.380 N 
ATOM     20  HZ1 LYS A   2      94.353  65.465 181.490  0.00  0.00    -0.089 HD
ATOM     21  HZ2 LYS A   2      93.053  64.521 180.936  0.00  0.00    -0.089 HD
ATOM     22  HZ3 LYS A   2      94.535  64.497 180.105  0.00  0.00    -0.089 HD
ENDBRANCH  18  19
ENDBRANCH  17  18
ENDBRANCH  16  17
ENDBRANCH  15  16
ENDBRANCH  12  15
ENDBRANCH   2  12
TORSDOF 11
REMARK  Name = ../refined-set-2016/3d2e/3d2e_pocket.pdb
REMARK  263 active torsions:
REMARK  status: ('A' for Active; 'I' for Inactive)
REMARK    1  A    between atoms: _1  and  _3
REMARK    2  A    between atoms: _3  and  _4
REMARK    3  A    between atoms: _3  and  _6
REMARK    4  A    between atoms: _6  and  _7
REMARK    5  A    between atoms: _10  and  _12
REMARK    6  A    between atoms: _12  and  _13
REMARK    7  A    between atoms: _12  and  _15
REMARK    8  A    between atoms: _15  and  _16
REMARK    9  A    between atoms: _19  and  _21
REMARK   10  A    between atoms: _21  and  _22
REMARK   11  A    between atoms: _24  and  _26
REMARK   12  A    between atoms: _26  and  _27
REMARK   13  A    between atoms: _26  and  _29
REMARK   14  A    between atoms: _29  and  _30
REMARK   15  A    between atoms: _35  and  _37
REMARK   16  A    between atoms: _37  and  _38
REMARK   17  A    between atoms: _37  and  _40
REMARK   18  A    between atoms: _40  and  _41
REMARK   19  A    between atoms: _46  and  _48
REMARK   20  A    between atoms: _48  and  _49
REMARK   21  A    between atoms: _48  and  _51
REMARK   22  A    between atoms: _51  and  _52
REMARK   23  A    between atoms: _57  and  _59
REMARK   24  A    between atoms: _59  and  _60
REMARK   25  A    between atoms: _59  and  _62
REMARK   26  A    between atoms: _62  and  _63
REMARK   27  A    between atoms: _65  and  _67
REMARK   28  A    between atoms: _67  and  _68
REMARK   29  A    between atoms: _67  and  _70
REMARK   30  A    between atoms: _73  and  _75
REMARK   31  A    between atoms: _75  and  _76
REMARK   32  A    between atoms: _75  and  _78
REMARK   33  A    between atoms: _78  and  _79
REMARK   34  A    between atoms: _81  and  _83
REMARK   35  A    between atoms: _83  and  _84
REMARK   36  A    between atoms: _83  and  _86
REMARK   37  A    between atoms: _86  and  _87
REMARK   38  A    between atoms: _90  and  _92
REMARK   39  A    between atoms: _92  and  _93
REMARK   40  A    between atoms: _92  and  _95
REMARK   41  A    between atoms: _95  and  _96
REMARK   42  A    between atoms: _98  and  _100
REMARK   43  A    between atoms: _100  and  _101
REMARK   44  A    between atoms: _100  and  _103
REMARK   45  A    between atoms: _103  and  _104
REMARK   46  A    between atoms: _104  and  _105
REMARK   47  A    between atoms: _105  and  _106
REMARK   48  A    between atoms: _106  and  _107
REMARK   49  A    between atoms: _111  and  _113
REMARK   50  A    between atoms: _113  and  _114
REMARK   51  A    between atoms: _113  and  _116
REMARK   52  A    between atoms: _116  and  _117
REMARK   53  A    between atoms: _117  and  _118
REMARK   54  A    between atoms: _118  and  _119
REMARK   55  A    between atoms: _128  and  _130
REMARK   56  A    between atoms: _130  and  _131
REMARK   57  A    between atoms: _134  and  _136
REMARK   58  A    between atoms: _136  and  _137
REMARK   59  A    between atoms: _136  and  _139
REMARK   60  A    between atoms: _143  and  _144
REMARK   61  A    between atoms: _149  and  _151
REMARK   62  A    between atoms: _151  and  _152
REMARK   63  A    between atoms: _151  and  _154
REMARK   64  A    between atoms: _154  and  _155
REMARK   65  A    between atoms: _165  and  _167
REMARK   66  A    between atoms: _167  and  _168
REMARK   67  A    between atoms: _167  and  _170
REMARK   68  A    between atoms: _170  and  _171
REMARK   69  A    between atoms: _174  and  _176
REMARK   70  A    between atoms: _176  and  _177
REMARK   71  A    between atoms: _176  and  _179
REMARK   72  A    between atoms: _179  and  _180
REMARK   73  A    between atoms: _183  and  _185
REMARK   74  A    between atoms: _185  and  _186
REMARK   75  A    between atoms: _185  and  _188
REMARK   76  A    between atoms: _188  and  _189
REMARK   77  A    between atoms: _192  and  _194
REMARK   78  A    between atoms: _194  and  _195
REMARK   79  A    between atoms: _197  and  _199
REMARK   80  A    between atoms: _199  and  _200
REMARK   81  A    between atoms: _199  and  _202
REMARK   82  A    between atoms: _202  and  _203
REMARK   83  A    between atoms: _208  and  _210
REMARK   84  A    between atoms: _210  and  _211
REMARK   85  A    between atoms: _210  and  _213
REMARK   86  A    between atoms: _213  and  _214
REMARK   87  A    between atoms: _216  and  _218
REMARK   88  A    between atoms: _218  and  _219
REMARK   89  A    between atoms: _218  and  _221
REMARK   90  A    between atoms: _221  and  _222
REMARK   91  A    between atoms: _224  and  _226
REMARK   92  A    between atoms: _226  and  _227
REMARK   93  A    between atoms: _226  and  _229
REMARK   94  A    between atoms: _229  and  _230
REMARK   95  A    between atoms: _235  and  _236
REMARK   96  A    between atoms: _238  and  _240
REMARK   97  A    between atoms: _240  and  _241
REMARK   98  A    between atoms: _240  and  _243
REMARK   99  A    between atoms: _243  and  _244
REMARK  100  A    between atoms: _247  and  _249
REMARK  101  A    between atoms: _249  and  _250
REMARK  102  A    between atoms: _249  and  _252
REMARK  103  A    between atoms: _252  and  _253
REMARK  104  A    between atoms: _256  and  _258
REMARK  105  A    between atoms: _258  and  _259
REMARK  106  A    between atoms: _258  and  _261
REMARK  107  A    between atoms: _261  and  _262
REMARK  108  A    between atoms: _262  and  _263
REMARK  109  A    between atoms: _263  and  _264
REMARK  110  A    between atoms: _264  and  _265
REMARK  111  A    between atoms: _269  and  _271
REMARK  112  A    between atoms: _271  and  _272
REMARK  113  A    between atoms: _271  and  _274
REMARK  114  A    between atoms: _274  and  _275
REMARK  115  A    between atoms: _281  and  _283
REMARK  116  A    between atoms: _283  and  _284
REMARK  117  A    between atoms: _286  and  _288
REMARK  118  A    between atoms: _288  and  _289
REMARK  119  A    between atoms: _291  and  _293
REMARK  120  A    between atoms: _293  and  _294
REMARK  121  A    between atoms: _293  and  _296
REMARK  122  A    between atoms: _296  and  _297
REMARK  123  A    between atoms: _297  and  _298
REMARK  124  A    between atoms: _298  and  _299
REMARK  125  A    between atoms: _308  and  _310
REMARK  126  A    between atoms: _310  and  _311
REMARK  127  A    between atoms: _310  and  _313
REMARK  128  A    between atoms: _313  and  _314
REMARK  129  A    between atoms: _317  and  _319
REMARK  130  A    between atoms: _319  and  _320
REMARK  131  A    between atoms: _319  and  _322
REMARK  132  A    between atoms: _322  and  _323
REMARK  133  A    between atoms: _329  and  _331
REMARK  134  A    between atoms: _331  and  _332
REMARK  135  A    between atoms: _331  and  _334
REMARK  136  A    between atoms: _334  and  _335
REMARK  137  A    between atoms: _338  and  _340
REMARK  138  A    between atoms: _340  and  _341
REMARK  139  A    between atoms: _344  and  _346
REMARK  140  A    between atoms: _346  and  _347
REMARK  141  A    between atoms: _346  and  _349
REMARK  142  A    between atoms: _349  and  _350
REMARK  143  A    between atoms: _350  and  _351
REMARK  144  A    between atoms: _354  and  _356
REMARK  145  A    between atoms: _356  and  _357
REMARK  146  A    between atoms: _356  and  _359
REMARK  147  A    between atoms: _359  and  _360
REMARK  148  A    between atoms: _360  and  _361
REMARK  149  A    between atoms: _361  and  _362
REMARK  150  A    between atoms: _362  and  _363
REMARK  151  A    between atoms: _367  and  _369
REMARK  152  A    between atoms: _369  and  _370
REMARK  153  A    between atoms: _369  and  _372
REMARK  154  A    between atoms: _372  and  _373
REMARK  155  A    between atoms: _376  and  _378
REMARK  156  A    between atoms: _378  and  _379
REMARK  157  A    between atoms: _378  and  _381
REMARK  158  A    between atoms: _381  and  _382
REMARK  159  A    between atoms: _382  and  _383
REMARK  160  A    between atoms: _383  and  _384
REMARK  161  A    between atoms: _384  and  _385
REMARK  162  A    between atoms: _389  and  _391
REMARK  163  A    between atoms: _391  and  _392
REMARK  164  A    between atoms: _391  and  _394
REMARK  165  A    between atoms: _394  and  _395
REMARK  166  A    between atoms: _395  and  _396
REMARK  167  A    between atoms: _396  and  _397
REMARK  168  A    between atoms: _397  and  _398
REMARK  169  A    between atoms: _402  and  _404
REMARK  170  A    between atoms: _404  and  _405
REMARK  171  A    between atoms: _404  and  _407
REMARK  172  A    between atoms: _410  and  _412
REMARK  173  A    between atoms: _412  and  _413
REMARK  174  A    between atoms: _412  and  _415
REMARK  175  A    between atoms: _415  and  _416
REMARK  176  A    between atoms: _419  and  _421
REMARK  177  A    between atoms: _421  and  _422
REMARK  178  A    between atoms: _421  and  _424
REMARK  179  A    between atoms: _424  and  _425
REMARK  180  A    between atoms: _427  and  _429
REMARK  181  A    between atoms: _429  and  _430
REMARK  182  A    between atoms: _433  and  _435
REMARK  183  A    between atoms: _435  and  _436
REMARK  184  A    between atoms: _435  and  _438
REMARK  185  A    between atoms: _438  and  _439
REMARK  186  A    between atoms: _442  and  _444
REMARK  187  A    between atoms: _444  and  _445
REMARK  188  A    between atoms: _444  and  _447
REMARK  189  A    between atoms: _447  and  _448
REMARK  190  A    between atoms: _451  and  _453
REMARK  191  A    between atoms: _453  and  _454
REMARK  192  A    between atoms: _456  and  _458
REMARK  193  A    between atoms: _458  and  _459
REMARK  194  A    between atoms: _461  and  _463
REMARK  195  A    between atoms: _463  and  _464
REMARK  196  A    between atoms: _463  and  _466
REMARK  197  A    between atoms: _466  and  _467
REMARK  198  A    between atoms: _470  and  _472
REMARK  199  A    between atoms: _472  and  _473
REMARK  200  A    between atoms: _472  and  _475
REMARK  201  A    between atoms: _475  and  _476
REMARK  202  A    between atoms: _479  and  _481
REMARK  203  A    between atoms: _481  and  _482
REMARK  204  A    between atoms: _481  and  _484
REMARK  205  A    between atoms: _484  and  _485
REMARK  206  A    between atoms: _485  and  _486
REMARK  207  A    between atoms: _486  and  _487
REMARK  208  A    between atoms: _496  and  _498
REMARK  209  A    between atoms: _498  and  _499
REMARK  210  A    between atoms: _498  and  _501
REMARK  211  A    between atoms: _501  and  _502
REMARK  212  A    between atoms: _506  and  _507
REMARK  213  A    between atoms: _512  and  _514
REMARK  214  A    between atoms: _514  and  _515
REMARK  215  A    between atoms: _514  and  _517
REMARK  216  A    between atoms: _517  and  _518
REMARK  217  A    between atoms: _521  and  _523
REMARK  218  A    between atoms: _523  and  _524
REMARK  219  A    between atoms: _523  and  _526
REMARK  220  A    between atoms: _526  and  _527
REMARK  221  A    between atoms: _527  and  _528
REMARK  222  A    between atoms: _528  and  _529
REMARK  223  A    between atoms: _529  and  _530
REMARK  224  A    between atoms: _534  and  _536
REMARK  225  A    between atoms: _536  and  _537
REMARK  226  A    between atoms: _536  and  _539
REMARK  227  A    between atoms: _539  and  _540
REMARK  228  A    between atoms: _540  and  _541
REMARK  229  A    between atoms: _546  and  _548
REMARK  230  A    between atoms: _548  and  _549
REMARK  231  A    between atoms: _548  and  _551
REMARK  232  A    between atoms: _551  and  _552
REMARK  233  A    between atoms: _555  and  _557
REMARK  234  A    between atoms: _557  and  _558
REMARK  235  A    between atoms: _557  and  _560
REMARK  236  A    between atoms: _560  and  _561
REMARK  237  A    between atoms: _564  and  _566
REMARK  238  A    between atoms: _566  and  _567
REMARK  239  A    between atoms: _566  and  _569
REMARK  240  A    between atoms: _569  and  _570
REMARK  241  A    between atoms: _575  and  _577
REMARK  242  A    between atoms: _577  and  _578
REMARK  243  A    between atoms: _577  and  _580
REMARK  244  A    between atoms: _580  and  _581
REMARK  245  A    between atoms: _584  and  _586
REMARK  246  A    between atoms: _586  and  _587
REMARK  247  A    between atoms: _586  and  _589
REMARK  248  A    between atoms: _589  and  _590
REMARK  249  A    between atoms: _590  and  _591
REMARK  250  A    between atoms: _596  and  _598
REMARK  251  A    between atoms: _598  and  _599
REMARK  252  A    between atoms: _601  and  _603
REMARK  253  A    between atoms: _603  and  _604
REMARK  254  A    between atoms: _603  and  _606
REMARK  255  A    between atoms: _606  and  _607
REMARK  256  A    between atoms: _612  and  _614
REMARK  257  A    between atoms: _614  and  _615
REMARK  258  A    between atoms: _614  and  _617
REMARK  259  A    between atoms: _617  and  _618
REMARK  260  A    between atoms: _621  and  _623
REMARK  261  A    between atoms: _623  and  _624
REMARK  262  A    between atoms: _623  and  _626
REMARK  263  A    between atoms: _626  and  _627
REMARK                            x       y       z     vdW  Elec       q    Type
REMARK                         _______ _______ _______ _____ _____    ______ ____
ROOT
ATOM      1  CA  ARG A   4      93.444  79.301 174.979  0.00  0.00    +0.149 C 
ENDROOT
BRANCH   1   3
ATOM      2  C   GLY A   3      91.214  79.856 174.182  0.00  0.00    +0.243 C 
ATOM      3  N   ARG A   4      91.998  79.172 175.002  0.00  0.00    -0.297 N 
ATOM      4  H   ARG A   4      91.563  78.520 175.686  0.00  0.00    +0.150 HD
ATOM      5  O   GLY A   3      91.647  80.584 173.289  0.00  0.00    -0.273 OA
BRANCH   2   6
ATOM      6  CA  GLY A   3      89.725  79.651 174.348  0.00  0.00    +0.176 C 
BRANCH   6   8
ATOM      7  C   GLY A   2      89.782  77.210 174.094  0.00  0.00    +0.243 C 
ATOM      8  N   GLY A   3      89.411  78.295 174.770  0.00  0.00    -0.295 N 
ATOM      9  H   GLY A   3      88.867  78.166 175.647  0.00  0.00    +0.150 HD
ATOM     10  O   GLY A   2      90.430  77.231 173.027  0.00  0.00    -0.273 OA
BRANCH   7  11
ATOM     11  CA  GLY A   2      89.351  75.902 174.694  0.00  0.00    +0.176 C 
BRANCH  11  14
ATOM     12  C   PHE A   1      89.108  73.589 174.001  0.00  0.00    +0.239 C 
ATOM     13  O   PHE A   1      88.218  73.404 174.824  0.00  0.00    -0.274 OA
ATOM     14  N   GLY A   2      89.689  74.780 173.832  0.00  0.00    -0.296 N 
ATOM     15  H   GLY A   2      90.391  74.907 173.075  0.00  0.00    +0.150 HD
BRANCH  12  16
ATOM     16  CA  PHE A   1      89.607  72.433 173.125  0.00  0.00    +0.149 C 
BRANCH  16  17
ATOM     17  N   PHE A   1      90.475  71.583 173.930  0.00  0.00    -0.238 NA
ATOM     18  H   PHE A   1      90.244  71.469 174.938  0.00  0.00    +0.142 HD
ENDBRANCH  16  17
BRANCH  16  19
ATOM     19  CB  PHE A   1      88.412  71.628 172.622  0.00  0.00    +0.053 C 
BRANCH  19  20
ATOM     20  CG  PHE A   1      87.682  72.241 171.444  0.00  0.00    -0.020 A 
ATOM     21  CD2 PHE A   1      87.043  73.483 171.550  0.00  0.00    -0.004 A 
ATOM     22  CE2 PHE A   1      86.352  74.045 170.471  0.00  0.00    -0.000 A 
ATOM     23  CZ  PHE A   1      86.280  73.368 169.269  0.00  0.00    -0.000 A 
ATOM     24  CE1 PHE A   1      86.881  72.109 169.146  0.00  0.00    -0.000 A 
ATOM     25  CD1 PHE A   1      87.583  71.546 170.248  0.00  0.00    -0.004 A 
ENDBRANCH  19  20
ENDBRANCH  16  19
ENDBRANCH  12  16
ENDBRANCH  11  14
ENDBRANCH   7  11
ENDBRANCH   6   8
ENDBRANCH   2   6
ENDBRANCH   1   3
BRANCH   1  26
ATOM     26  C   ARG A   4      94.053  78.787 173.682  0.00  0.00    +0.241 C 
ATOM     27  O   ARG A   4      95.124  79.244 173.277  0.00  0.00    -0.273 OA
ATOM     28  N   ASP A   5      93.368  77.847 173.042  0.00  0.00    -0.297 N 
ATOM     29  H   ASP A   5      92.495  77.482 173.473  0.00  0.00    +0.150 HD
BRANCH  28  30
ATOM     30  CA  ASP A   5      93.794  77.309 171.761  0.00  0.00    +0.160 C 
BRANCH  30  31
ATOM     31  C   ASP A   5      93.525  78.313 170.625  0.00  0.00    +0.241 C 
ATOM     32  N   PHE A   6      92.486  79.136 170.766  0.00  0.00    -0.297 N 
ATOM     33  H   PHE A   6      91.842  78.995 171.570  0.00  0.00    +0.150 HD
ATOM     34  O   ASP A   5      94.266  78.353 169.656  0.00  0.00    -0.273 OA
BRANCH  32  35
ATOM     35  CA  PHE A   6      92.215  80.235 169.829  0.00  0.00    +0.153 C 
BRANCH  35  36
ATOM     36  C   PHE A   6      93.260  81.354 169.977  0.00  0.00    +0.241 C 
ATOM     37  N   ASP A   7      93.513  81.798 171.217  0.00  0.00    -0.298 N 
ATOM     38  H   ASP A   7      92.955  81.410 172.004  0.00  0.00    +0.150 HD
ATOM     39  O   PHE A   6      93.823  81.794 168.974  0.00  0.00    -0.273 OA
BRANCH  37  40
ATOM     40  CA  ASP A   7      94.534  82.800 171.519  0.00  0.00    +0.148 C 
BRANCH  40  41
ATOM     41  C   ASP A   7      95.865  82.385 170.938  0.00  0.00    +0.227 C 
ATOM     42  O   ASP A   7      96.600  83.215 170.410  0.00  0.00    -0.286 OA
ENDBRANCH  40  41
BRANCH  40  43
ATOM     43  CB  ASP A   7      94.755  82.987 173.035  0.00  0.00    +0.142 C 
BRANCH  43  44
ATOM     44  CG  ASP A   7      93.525  83.417 173.775  0.00  0.00    +0.367 C 
ATOM     45  OD2 ASP A   7      93.534  83.349 175.029  0.00  0.00    -0.246 OA
ATOM     46  OD1 ASP A   7      92.543  83.814 173.134  0.00  0.00    -0.246 OA
ENDBRANCH  43  44
ENDBRANCH  40  43
ENDBRANCH  37  40
ENDBRANCH  35  36
BRANCH  35  47
ATOM     47  CB  PHE A   6      90.799  80.815 170.019  0.00  0.00    +0.055 C 
BRANCH  47  48
ATOM     48  CG  PHE A   6      89.671  79.896 169.553  0.00  0.00    -0.020 A 
ATOM     49  CD2 PHE A   6      89.266  78.809 170.322  0.00  0.00    -0.004 A 
ATOM     50  CE2 PHE A   6      88.189  77.959 169.894  0.00  0.00    -0.000 A 
ATOM     51  CZ  PHE A   6      87.527  78.231 168.672  0.00  0.00    -0.000 A 
ATOM     52  CE1 PHE A   6      87.918  79.328 167.906  0.00  0.00    -0.000 A 
ATOM     53  CD1 PHE A   6      88.990  80.156 168.354  0.00  0.00    -0.004 A 
ENDBRANCH  47  48
ENDBRANCH  35  47
ENDBRANCH  32  35
ENDBRANCH  30  31
BRANCH  30  54
ATOM     54  CB  ASP A   5      93.142  75.924 171.505  0.00  0.00    +0.143 C 
BRANCH  54  55
ATOM     55  CG  ASP A   5      93.414  74.922 172.640  0.00  0.00    +0.367 C 
ATOM     56  OD2 ASP A   5      92.469  74.654 173.434  0.00  0.00    -0.246 OA
ATOM     57  OD1 ASP A   5      94.579  74.425 172.752  0.00  0.00    -0.246 OA
ENDBRANCH  54  55
ENDBRANCH  30  54
ENDBRANCH  28  30
ENDBRANCH   1  26
BRANCH   1  58
ATOM     58  CB  ARG A   4      94.079  78.601 176.190  0.00  0.00    +0.033 C 
BRANCH  58  59
ATOM     59  CG  ARG A   4      94.157  77.083 176.139  0.00  0.00    +0.045 C 
BRANCH  59  60
ATOM     60  CD  ARG A   4      94.836  76.574 177.419  0.00  0.00    +0.174 C 
BRANCH  60  61
ATOM     61  NE  ARG A   4      94.968  75.127 177.422  0.00  0.00    -0.265 N 
ATOM     62  CZ  ARG A   4      95.579  74.415 178.366  0.00  0.00    +0.342 C 
ATOM     63  NH2 ARG A   4      96.122  75.005 179.433  0.00  0.00    -0.292 N 
ATOM     64 HH21 ARG A   4      96.595  74.431 180.160  0.00  0.00    +0.255 HD
ATOM     65 HH22 ARG A   4      96.072  76.039 179.537  0.00  0.00    +0.255 HD
ATOM     66  NH1 ARG A   4      95.649  73.101 178.229  0.00  0.00    -0.292 N 
ATOM     67 HH11 ARG A   4      96.122  72.527 178.956  0.00  0.00    +0.255 HD
ATOM     68 HH12 ARG A   4      95.231  72.642 177.395  0.00  0.00    +0.255 HD
ATOM     69  HE  ARG A   4      94.552  74.607 176.623  0.00  0.00    +0.259 HD
ENDBRANCH  60  61
ENDBRANCH  59  60
ENDBRANCH  58  59
ENDBRANCH   1  58
TORSDOF 26
REMARK  Name = ../refined-set-2016/3d2e/3d2e_pocket.pdb
REMARK  263 active torsions:
REMARK  status: ('A' for Active; 'I' for Inactive)
REMARK    1  A    between atoms: _1  and  _3
REMARK    2  A    between atoms: _3  and  _4
REMARK    3  A    between atoms: _3  and  _6
REMARK    4  A    between atoms: _6  and  _7
REMARK    5  A    between atoms: _10  and  _12
REMARK    6  A    between atoms: _12  and  _13
REMARK    7  A    between atoms: _12  and  _15
REMARK    8  A    between atoms: _15  and  _16
REMARK    9  A    between atoms: _19  and  _21
REMARK   10  A    between atoms: _21  and  _22
REMARK   11  A    between atoms: _24  and  _26
REMARK   12  A    between atoms: _26  and  _27
REMARK   13  A    between atoms: _26  and  _29
REMARK   14  A    between atoms: _29  and  _30
REMARK   15  A    between atoms: _35  and  _37
REMARK   16  A    between atoms: _37  and  _38
REMARK   17  A    between atoms: _37  and  _40
REMARK   18  A    between atoms: _40  and  _41
REMARK   19  A    between atoms: _46  and  _48
REMARK   20  A    between atoms: _48  and  _49
REMARK   21  A    between atoms: _48  and  _51
REMARK   22  A    between atoms: _51  and  _52
REMARK   23  A    between atoms: _57  and  _59
REMARK   24  A    between atoms: _59  and  _60
REMARK   25  A    between atoms: _59  and  _62
REMARK   26  A    between atoms: _62  and  _63
REMARK   27  A    between atoms: _65  and  _67
REMARK   28  A    between atoms: _67  and  _68
REMARK   29  A    between atoms: _67  and  _70
REMARK   30  A    between atoms: _73  and  _75
REMARK   31  A    between atoms: _75  and  _76
REMARK   32  A    between atoms: _75  and  _78
REMARK   33  A    between atoms: _78  and  _79
REMARK   34  A    between atoms: _81  and  _83
REMARK   35  A    between atoms: _83  and  _84
REMARK   36  A    between atoms: _83  and  _86
REMARK   37  A    between atoms: _86  and  _87
REMARK   38  A    between atoms: _90  and  _92
REMARK   39  A    between atoms: _92  and  _93
REMARK   40  A    between atoms: _92  and  _95
REMARK   41  A    between atoms: _95  and  _96
REMARK   42  A    between atoms: _98  and  _100
REMARK   43  A    between atoms: _100  and  _101
REMARK   44  A    between atoms: _100  and  _103
REMARK   45  A    between atoms: _103  and  _104
REMARK   46  A    between atoms: _104  and  _105
REMARK   47  A    between atoms: _105  and  _106
REMARK   48  A    between atoms: _106  and  _107
REMARK   49  A    between atoms: _111  and  _113
REMARK   50  A    between atoms: _113  and  _114
REMARK   51  A    between atoms: _113  and  _116
REMARK   52  A    between atoms: _116  and  _117
REMARK   53  A    between atoms: _117  and  _118
REMARK   54  A    between atoms: _118  and  _119
REMARK   55  A    between atoms: _128  and  _130
REMARK   56  A    between atoms: _130  and  _131
REMARK   57  A    between atoms: _134  and  _136
REMARK   58  A    between atoms: _136  and  _137
REMARK   59  A    between atoms: _136  and  _139
REMARK   60  A    between atoms: _143  and  _144
REMARK   61  A    between atoms: _149  and  _151
REMARK   62  A    between atoms: _151  and  _152
REMARK   63  A    between atoms: _151  and  _154
REMARK   64  A    between atoms: _154  and  _155
REMARK   65  A    between atoms: _165  and  _167
REMARK   66  A    between atoms: _167  and  _168
REMARK   67  A    between atoms: _167  and  _170
REMARK   68  A    between atoms: _170  and  _171
REMARK   69  A    between atoms: _174  and  _176
REMARK   70  A    between atoms: _176  and  _177
REMARK   71  A    between atoms: _176  and  _179
REMARK   72  A    between atoms: _179  and  _180
REMARK   73  A    between atoms: _183  and  _185
REMARK   74  A    between atoms: _185  and  _186
REMARK   75  A    between atoms: _185  and  _188
REMARK   76  A    between atoms: _188  and  _189
REMARK   77  A    between atoms: _192  and  _194
REMARK   78  A    between atoms: _194  and  _195
REMARK   79  A    between atoms: _197  and  _199
REMARK   80  A    between atoms: _199  and  _200
REMARK   81  A    between atoms: _199  and  _202
REMARK   82  A    between atoms: _202  and  _203
REMARK   83  A    between atoms: _208  and  _210
REMARK   84  A    between atoms: _210  and  _211
REMARK   85  A    between atoms: _210  and  _213
REMARK   86  A    between atoms: _213  and  _214
REMARK   87  A    between atoms: _216  and  _218
REMARK   88  A    between atoms: _218  and  _219
REMARK   89  A    between atoms: _218  and  _221
REMARK   90  A    between atoms: _221  and  _222
REMARK   91  A    between atoms: _224  and  _226
REMARK   92  A    between atoms: _226  and  _227
REMARK   93  A    between atoms: _226  and  _229
REMARK   94  A    between atoms: _229  and  _230
REMARK   95  A    between atoms: _235  and  _236
REMARK   96  A    between atoms: _238  and  _240
REMARK   97  A    between atoms: _240  and  _241
REMARK   98  A    between atoms: _240  and  _243
REMARK   99  A    between atoms: _243  and  _244
REMARK  100  A    between atoms: _247  and  _249
REMARK  101  A    between atoms: _249  and  _250
REMARK  102  A    between atoms: _249  and  _252
REMARK  103  A    between atoms: _252  and  _253
REMARK  104  A    between atoms: _256  and  _258
REMARK  105  A    between atoms: _258  and  _259
REMARK  106  A    between atoms: _258  and  _261
REMARK  107  A    between atoms: _261  and  _262
REMARK  108  A    between atoms: _262  and  _263
REMARK  109  A    between atoms: _263  and  _264
REMARK  110  A    between atoms: _264  and  _265
REMARK  111  A    between atoms: _269  and  _271
REMARK  112  A    between atoms: _271  and  _272
REMARK  113  A    between atoms: _271  and  _274
REMARK  114  A    between atoms: _274  and  _275
REMARK  115  A    between atoms: _281  and  _283
REMARK  116  A    between atoms: _283  and  _284
REMARK  117  A    between atoms: _286  and  _288
REMARK  118  A    between atoms: _288  and  _289
REMARK  119  A    between atoms: _291  and  _293
REMARK  120  A    between atoms: _293  and  _294
REMARK  121  A    between atoms: _293  and  _296
REMARK  122  A    between atoms: _296  and  _297
REMARK  123  A    between atoms: _297  and  _298
REMARK  124  A    between atoms: _298  and  _299
REMARK  125  A    between atoms: _308  and  _310
REMARK  126  A    between atoms: _310  and  _311
REMARK  127  A    between atoms: _310  and  _313
REMARK  128  A    between atoms: _313  and  _314
REMARK  129  A    between atoms: _317  and  _319
REMARK  130  A    between atoms: _319  and  _320
REMARK  131  A    between atoms: _319  and  _322
REMARK  132  A    between atoms: _322  and  _323
REMARK  133  A    between atoms: _329  and  _331
REMARK  134  A    between atoms: _331  and  _332
REMARK  135  A    between atoms: _331  and  _334
REMARK  136  A    between atoms: _334  and  _335
REMARK  137  A    between atoms: _338  and  _340
REMARK  138  A    between atoms: _340  and  _341
REMARK  139  A    between atoms: _344  and  _346
REMARK  140  A    between atoms: _346  and  _347
REMARK  141  A    between atoms: _346  and  _349
REMARK  142  A    between atoms: _349  and  _350
REMARK  143  A    between atoms: _350  and  _351
REMARK  144  A    between atoms: _354  and  _356
REMARK  145  A    between atoms: _356  and  _357
REMARK  146  A    between atoms: _356  and  _359
REMARK  147  A    between atoms: _359  and  _360
REMARK  148  A    between atoms: _360  and  _361
REMARK  149  A    between atoms: _361  and  _362
REMARK  150  A    between atoms: _362  and  _363
REMARK  151  A    between atoms: _367  and  _369
REMARK  152  A    between atoms: _369  and  _370
REMARK  153  A    between atoms: _369  and  _372
REMARK  154  A    between atoms: _372  and  _373
REMARK  155  A    between atoms: _376  and  _378
REMARK  156  A    between atoms: _378  and  _379
REMARK  157  A    between atoms: _378  and  _381
REMARK  158  A    between atoms: _381  and  _382
REMARK  159  A    between atoms: _382  and  _383
REMARK  160  A    between atoms: _383  and  _384
REMARK  161  A    between atoms: _384  and  _385
REMARK  162  A    between atoms: _389  and  _391
REMARK  163  A    between atoms: _391  and  _392
REMARK  164  A    between atoms: _391  and  _394
REMARK  165  A    between atoms: _394  and  _395
REMARK  166  A    between atoms: _395  and  _396
REMARK  167  A    between atoms: _396  and  _397
REMARK  168  A    between atoms: _397  and  _398
REMARK  169  A    between atoms: _402  and  _404
REMARK  170  A    between atoms: _404  and  _405
REMARK  171  A    between atoms: _404  and  _407
REMARK  172  A    between atoms: _410  and  _412
REMARK  173  A    between atoms: _412  and  _413
REMARK  174  A    between atoms: _412  and  _415
REMARK  175  A    between atoms: _415  and  _416
REMARK  176  A    between atoms: _419  and  _421
REMARK  177  A    between atoms: _421  and  _422
REMARK  178  A    between atoms: _421  and  _424
REMARK  179  A    between atoms: _424  and  _425
REMARK  180  A    between atoms: _427  and  _429
REMARK  181  A    between atoms: _429  and  _430
REMARK  182  A    between atoms: _433  and  _435
REMARK  183  A    between atoms: _435  and  _436
REMARK  184  A    between atoms: _435  and  _438
REMARK  185  A    between atoms: _438  and  _439
REMARK  186  A    between atoms: _442  and  _444
REMARK  187  A    between atoms: _444  and  _445
REMARK  188  A    between atoms: _444  and  _447
REMARK  189  A    between atoms: _447  and  _448
REMARK  190  A    between atoms: _451  and  _453
REMARK  191  A    between atoms: _453  and  _454
REMARK  192  A    between atoms: _456  and  _458
REMARK  193  A    between atoms: _458  and  _459
REMARK  194  A    between atoms: _461  and  _463
REMARK  195  A    between atoms: _463  and  _464
REMARK  196  A    between atoms: _463  and  _466
REMARK  197  A    between atoms: _466  and  _467
REMARK  198  A    between atoms: _470  and  _472
REMARK  199  A    between atoms: _472  and  _473
REMARK  200  A    between atoms: _472  and  _475
REMARK  201  A    between atoms: _475  and  _476
REMARK  202  A    between atoms: _479  and  _481
REMARK  203  A    between atoms: _481  and  _482
REMARK  204  A    between atoms: _481  and  _484
REMARK  205  A    between atoms: _484  and  _485
REMARK  206  A    between atoms: _485  and  _486
REMARK  207  A    between atoms: _486  and  _487
REMARK  208  A    between atoms: _496  and  _498
REMARK  209  A    between atoms: _498  and  _499
REMARK  210  A    between atoms: _498  and  _501
REMARK  211  A    between atoms: _501  and  _502
REMARK  212  A    between atoms: _506  and  _507
REMARK  213  A    between atoms: _512  and  _514
REMARK  214  A    between atoms: _514  and  _515
REMARK  215  A    between atoms: _514  and  _517
REMARK  216  A    between atoms: _517  and  _518
REMARK  217  A    between atoms: _521  and  _523
REMARK  218  A    between atoms: _523  and  _524
REMARK  219  A    between atoms: _523  and  _526
REMARK  220  A    between atoms: _526  and  _527
REMARK  221  A    between atoms: _527  and  _528
REMARK  222  A    between atoms: _528  and  _529
REMARK  223  A    between atoms: _529  and  _530
REMARK  224  A    between atoms: _534  and  _536
REMARK  225  A    between atoms: _536  and  _537
REMARK  226  A    between atoms: _536  and  _539
REMARK  227  A    between atoms: _539  and  _540
REMARK  228  A    between atoms: _540  and  _541
REMARK  229  A    between atoms: _546  and  _548
REMARK  230  A    between atoms: _548  and  _549
REMARK  231  A    between atoms: _548  and  _551
REMARK  232  A    between atoms: _551  and  _552
REMARK  233  A    between atoms: _555  and  _557
REMARK  234  A    between atoms: _557  and  _558
REMARK  235  A    between atoms: _557  and  _560
REMARK  236  A    between atoms: _560  and  _561
REMARK  237  A    between atoms: _564  and  _566
REMARK  238  A    between atoms: _566  and  _567
REMARK  239  A    between atoms: _566  and  _569
REMARK  240  A    between atoms: _569  and  _570
REMARK  241  A    between atoms: _575  and  _577
REMARK  242  A    between atoms: _577  and  _578
REMARK  243  A    between atoms: _577  and  _580
REMARK  244  A    between atoms: _580  and  _581
REMARK  245  A    between atoms: _584  and  _586
REMARK  246  A    between atoms: _586  and  _587
REMARK  247  A    between atoms: _586  and  _589
REMARK  248  A    between atoms: _589  and  _590
REMARK  249  A    between atoms: _590  and  _591
REMARK  250  A    between atoms: _596  and  _598
REMARK  251  A    between atoms: _598  and  _599
REMARK  252  A    between atoms: _601  and  _603
REMARK  253  A    between atoms: _603  and  _604
REMARK  254  A    between atoms: _603  and  _606
REMARK  255  A    between atoms: _606  and  _607
REMARK  256  A    between atoms: _612  and  _614
REMARK  257  A    between atoms: _614  and  _615
REMARK  258  A    between atoms: _614  and  _617
REMARK  259  A    between atoms: _617  and  _618
REMARK  260  A    between atoms: _621  and  _623
REMARK  261  A    between atoms: _623  and  _624
REMARK  262  A    between atoms: _623  and  _626
REMARK  263  A    between atoms: _626  and  _627
REMARK                            x       y       z     vdW  Elec       q    Type
REMARK                         _______ _______ _______ _____ _____    ______ ____
ROOT
ATOM      1  CA  LYS A   5      89.512  87.090 169.584  0.00  0.00    +0.149 C 
ENDROOT
BRANCH   1   2
ATOM      2  C   LYS A   5      88.104  87.483 170.070  0.00  0.00    +0.241 C 
ATOM      3  N   LYS A   6      88.013  88.152 171.222  0.00  0.00    -0.297 N 
ATOM      4  H   LYS A   6      88.882  88.401 171.736  0.00  0.00    +0.150 HD
ATOM      5  O   LYS A   5      87.107  87.182 169.389  0.00  0.00    -0.273 OA
BRANCH   3   6
ATOM      6  CA  LYS A   6      86.709  88.545 171.781  0.00  0.00    +0.149 C 
BRANCH   6   7
ATOM      7  C   LYS A   6      85.991  89.563 170.921  0.00  0.00    +0.241 C 
ATOM      8  O   LYS A   6      84.784  89.446 170.719  0.00  0.00    -0.273 OA
ATOM      9  N   VAL A   7      86.723  90.567 170.419  0.00  0.00    -0.297 N 
ATOM     10  H   VAL A   7      87.710  90.689 170.723  0.00  0.00    +0.150 HD
BRANCH   9  11
ATOM     11  CA  VAL A   7      86.134  91.504 169.433  0.00  0.00    +0.149 C 
BRANCH  11  12
ATOM     12  C   VAL A   7      85.465  90.729 168.274  0.00  0.00    +0.241 C 
ATOM     13  O   VAL A   7      84.345  91.059 167.849  0.00  0.00    -0.273 OA
ATOM     14  N   LEU A   8      86.133  89.672 167.814  0.00  0.00    -0.297 N 
ATOM     15  H   LEU A   8      87.028  89.412 168.276  0.00  0.00    +0.150 HD
BRANCH  14  16
ATOM     16  CA  LEU A   8      85.665  88.855 166.683  0.00  0.00    +0.149 C 
BRANCH  16  17
ATOM     17  C   LEU A   8      84.425  87.982 166.974  0.00  0.00    +0.241 C 
ATOM     18  N   SER A   9      84.022  87.860 168.240  0.00  0.00    -0.295 N 
ATOM     19  H   SER A   9      84.647  88.180 169.008  0.00  0.00    +0.150 HD
ATOM     20  O   LEU A   8      83.844  87.429 166.049  0.00  0.00    -0.273 OA
BRANCH  18  21
ATOM     21  CA  SER A   9      82.713  87.283 168.569  0.00  0.00    +0.178 C 
BRANCH  21  22
ATOM     22  C   SER A   9      81.582  88.302 168.336  0.00  0.00    +0.243 C 
ATOM     23  N   ALA A  10      81.920  89.598 168.299  0.00  0.00    -0.298 N 
ATOM     24  H   ALA A  10      82.919  89.866 168.411  0.00  0.00    +0.150 HD
ATOM     25  O   SER A   9      80.427  87.910 168.193  0.00  0.00    -0.273 OA
BRANCH  23  26
ATOM     26  CA  ALA A  10      80.911  90.650 168.104  0.00  0.00    +0.137 C 
ATOM     27  CB  ALA A  10      81.067  91.740 169.164  0.00  0.00    +0.030 C 
BRANCH  26  28
ATOM     28  C   ALA A  10      80.964  91.246 166.700  0.00  0.00    +0.227 C 
ATOM     29  O   ALA A  10      79.935  91.541 166.092  0.00  0.00    -0.286 OA
ENDBRANCH  26  28
ENDBRANCH  23  26
ENDBRANCH  21  22
BRANCH  21  30
ATOM     30  CB  SER A   9      82.661  86.793 170.006  0.00  0.00    +0.166 C 
BRANCH  30  31
ATOM     31  OG  SER A   9      83.654  85.840 170.234  0.00  0.00    -0.380 OA
ATOM     32  H   SER A   9      83.605  85.533 171.174  0.00  0.00    +0.211 HD
ENDBRANCH  30  31
ENDBRANCH  21  30
ENDBRANCH  18  21
ENDBRANCH  16  17
BRANCH  16  33
ATOM     33  CB  LEU A   8      86.827  88.033 166.079  0.00  0.00    +0.029 C 
BRANCH  33  34
ATOM     34  CG  LEU A   8      87.879  88.877 165.334  0.00  0.00    +0.002 C 
ATOM     35  CD2 LEU A   8      89.121  88.017 165.013  0.00  0.00    +0.000 C 
ATOM     36  CD1 LEU A   8      87.312  89.512 164.033  0.00  0.00    +0.000 C 
ENDBRANCH  33  34
ENDBRANCH  16  33
ENDBRANCH  14  16
ENDBRANCH  11  12
BRANCH  11  37
ATOM     37  CB  VAL A   7      87.153  92.529 168.912  0.00  0.00    +0.027 C 
ATOM     38  CG2 VAL A   7      87.579  93.468 170.037  0.00  0.00    +0.002 C 
ATOM     39  CG1 VAL A   7      86.586  93.334 167.713  0.00  0.00    +0.002 C 
ENDBRANCH  11  37
ENDBRANCH   9  11
ENDBRANCH   6   7
BRANCH   6  40
ATOM     40  CB  LYS A   6      86.826  89.112 173.197  0.00  0.00    +0.029 C 
BRANCH  40  41
ATOM     41  CG  LYS A   6      87.284  88.148 174.263  0.00  0.00    +0.000 C 
BRANCH  41  42
ATOM     42  CD  LYS A   6      87.050  88.825 175.594  0.00  0.00    -0.024 C 
BRANCH  42  43
ATOM     43  CE  LYS A   6      87.706  88.104 176.716  0.00  0.00    -0.086 C 
BRANCH  43  44
ATOM     44  NZ  LYS A   6      87.486  88.831 178.008  0.00  0.00    +0.380 N 
ATOM     45  HZ1 LYS A   6      87.952  88.312 178.780  0.00  0.00    -0.089 HD
ATOM     46  HZ2 LYS A   6      86.466  88.896 178.198  0.00  0.00    -0.089 HD
ATOM     47  HZ3 LYS A   6      87.889  89.787 177.939  0.00  0.00    -0.089 HD
ENDBRANCH  43  44
ENDBRANCH  42  43
ENDBRANCH  41  42
ENDBRANCH  40  41
ENDBRANCH   6  40
ENDBRANCH   3   6
ENDBRANCH   1   2
BRANCH   1  49
ATOM     48  C   LEU A   4      90.131  89.398 169.161  0.00  0.00    +0.241 C 
ATOM     49  N   LYS A   5      90.426  88.216 169.691  0.00  0.00    -0.297 N 
ATOM     50  H   LYS A   5      91.329  88.094 170.193  0.00  0.00    +0.150 HD
ATOM     51  O   LEU A   4      89.105  89.587 168.509  0.00  0.00    -0.273 OA
BRANCH  48  52
ATOM     52  CA  LEU A   4      91.127  90.547 169.445  0.00  0.00    +0.149 C 
BRANCH  52  55
ATOM     53  C   LYS A   3      90.640  90.873 171.822  0.00  0.00    +0.241 C 
ATOM     54  O   LYS A   3      89.522  91.337 171.624  0.00  0.00    -0.273 OA
ATOM     55  N   LEU A   4      91.487  90.552 170.853  0.00  0.00    -0.297 N 
ATOM     56  H   LEU A   4      92.459  90.290 171.114  0.00  0.00    +0.150 HD
BRANCH  53  57
ATOM     57  CA  LYS A   3      91.163  90.725 173.221  0.00  0.00    +0.149 C 
BRANCH  57  59
ATOM     58  C   GLU A   2      91.582  88.296 173.250  0.00  0.00    +0.241 C 
ATOM     59  N   LYS A   3      92.032  89.550 173.355  0.00  0.00    -0.297 N 
ATOM     60  H   LYS A   3      93.044  89.700 173.540  0.00  0.00    +0.150 HD
ATOM     61  O   GLU A   2      90.410  88.011 173.047  0.00  0.00    -0.273 OA
BRANCH  58  62
ATOM     62  CA  GLU A   2      92.609  87.197 173.422  0.00  0.00    +0.149 C 
BRANCH  62  64
ATOM     63  C   ALA A   1      93.987  87.656 171.465  0.00  0.00    +0.238 C 
ATOM     64  N   GLU A   2      93.877  87.515 172.792  0.00  0.00    -0.297 N 
ATOM     65  H   GLU A   2      94.722  87.636 173.386  0.00  0.00    +0.150 HD
ATOM     66  O   ALA A   1      93.046  87.447 170.673  0.00  0.00    -0.274 OA
BRANCH  63  67
ATOM     67  CA  ALA A   1      95.359  88.091 170.929  0.00  0.00    +0.145 C 
ATOM     68  CB  ALA A   1      96.236  86.875 170.583  0.00  0.00    +0.028 C 
BRANCH  67  69
ATOM     69  N   ALA A   1      96.062  88.984 171.842  0.00  0.00    -0.238 NA
ATOM     70  H   ALA A   1      96.913  88.638 172.328  0.00  0.00    +0.142 HD
ENDBRANCH  67  69
ENDBRANCH  63  67
ENDBRANCH  62  64
BRANCH  62  71
ATOM     71  CB  GLU A   2      92.751  86.875 174.927  0.00  0.00    +0.041 C 
BRANCH  71  72
ATOM     72  CG  GLU A   2      91.376  86.949 175.604  0.00  0.00    +0.116 C 
BRANCH  72  73
ATOM     73  CD  GLU A   2      91.414  86.958 177.086  0.00  0.00    +0.365 C 
ATOM     74  OE2 GLU A   2      90.428  86.481 177.709  0.00  0.00    -0.246 OA
ATOM     75  OE1 GLU A   2      92.419  87.455 177.639  0.00  0.00    -0.246 OA
ENDBRANCH  72  73
ENDBRANCH  71  72
ENDBRANCH  62  71
ENDBRANCH  58  62
ENDBRANCH  57  59
BRANCH  57  76
ATOM     76  CB  LYS A   3      91.914  92.001 173.551  0.00  0.00    +0.029 C 
BRANCH  76  77
ATOM     77  CG  LYS A   3      92.343  92.131 174.961  0.00  0.00    +0.000 C 
BRANCH  77  78
ATOM     78  CD  LYS A   3      93.362  93.241 175.088  0.00  0.00    -0.024 C 
BRANCH  78  79
ATOM     79  CE  LYS A   3      93.649  93.498 176.536  0.00  0.00    -0.086 C 
BRANCH  79  80
ATOM     80  NZ  LYS A   3      93.343  92.264 177.344  0.00  0.00    +0.380 N 
ATOM     81  HZ1 LYS A   3      93.544  92.449 178.347  0.00  0.00    -0.089 HD
ATOM     82  HZ2 LYS A   3      92.339  92.017 177.230  0.00  0.00    -0.089 HD
ATOM     83  HZ3 LYS A   3      93.935  91.477 177.010  0.00  0.00    -0.089 HD
ENDBRANCH  79  80
ENDBRANCH  78  79
ENDBRANCH  77  78
ENDBRANCH  76  77
ENDBRANCH  57  76
ENDBRANCH  53  57
ENDBRANCH  52  55
BRANCH  52  84
ATOM     84  CB  LEU A   4      92.419  90.417 168.627  0.00  0.00    +0.029 C 
BRANCH  84  85
ATOM     85  CG  LEU A   4      92.565  90.216 167.110  0.00  0.00    +0.002 C 
ATOM     86  CD2 LEU A   4      92.298  88.787 166.789  0.00  0.00    +0.000 C 
ATOM     87  CD1 LEU A   4      91.673  91.161 166.312  0.00  0.00    +0.000 C 
ENDBRANCH  84  85
ENDBRANCH  52  84
ENDBRANCH  48  52
ENDBRANCH   1  49
BRANCH   1  88
ATOM     88  CB  LYS A   5      90.068  85.901 170.364  0.00  0.00    +0.029 C 
BRANCH  88  89
ATOM     89  CG  LYS A   5      89.094  84.761 170.600  0.00  0.00    +0.000 C 
BRANCH  89  90
ATOM     90  CD  LYS A   5      89.539  83.898 171.760  0.00  0.00    -0.024 C 
BRANCH  90  91
ATOM     91  CE  LYS A   5      89.303  84.537 173.112  0.00  0.00    -0.086 C 
BRANCH  91  92
ATOM     92  NZ  LYS A   5      89.834  83.607 174.133  0.00  0.00    +0.380 N 
ATOM     93  HZ1 LYS A   5      89.689  84.014 175.079  0.00  0.00    -0.089 HD
ATOM     94  HZ2 LYS A   5      89.334  82.697 174.065  0.00  0.00    -0.089 HD
ATOM     95  HZ3 LYS A   5      90.850  83.459 173.970  0.00  0.00    -0.089 HD
ENDBRANCH  91  92
ENDBRANCH  90  91
ENDBRANCH  89  90
ENDBRANCH  88  89
ENDBRANCH   1  88
TORSDOF 45
REMARK  Name = ../refined-set-2016/3d2e/3d2e_pocket.pdb
REMARK  263 active torsions:
REMARK  status: ('A' for Active; 'I' for Inactive)
REMARK    1  A    between atoms: _1  and  _3
REMARK    2  A    between atoms: _3  and  _4
REMARK    3  A    between atoms: _3  and  _6
REMARK    4  A    between atoms: _6  and  _7
REMARK    5  A    between atoms: _10  and  _12
REMARK    6  A    between atoms: _12  and  _13
REMARK    7  A    between atoms: _12  and  _15
REMARK    8  A    between atoms: _15  and  _16
REMARK    9  A    between atoms: _19  and  _21
REMARK   10  A    between atoms: _21  and  _22
REMARK   11  A    between atoms: _24  and  _26
REMARK   12  A    between atoms: _26  and  _27
REMARK   13  A    between atoms: _26  and  _29
REMARK   14  A    between atoms: _29  and  _30
REMARK   15  A    between atoms: _35  and  _37
REMARK   16  A    between atoms: _37  and  _38
REMARK   17  A    between atoms: _37  and  _40
REMARK   18  A    between atoms: _40  and  _41
REMARK   19  A    between atoms: _46  and  _48
REMARK   20  A    between atoms: _48  and  _49
REMARK   21  A    between atoms: _48  and  _51
REMARK   22  A    between atoms: _51  and  _52
REMARK   23  A    between atoms: _57  and  _59
REMARK   24  A    between atoms: _59  and  _60
REMARK   25  A    between atoms: _59  and  _62
REMARK   26  A    between atoms: _62  and  _63
REMARK   27  A    between atoms: _65  and  _67
REMARK   28  A    between atoms: _67  and  _68
REMARK   29  A    between atoms: _67  and  _70
REMARK   30  A    between atoms: _73  and  _75
REMARK   31  A    between atoms: _75  and  _76
REMARK   32  A    between atoms: _75  and  _78
REMARK   33  A    between atoms: _78  and  _79
REMARK   34  A    between atoms: _81  and  _83
REMARK   35  A    between atoms: _83  and  _84
REMARK   36  A    between atoms: _83  and  _86
REMARK   37  A    between atoms: _86  and  _87
REMARK   38  A    between atoms: _90  and  _92
REMARK   39  A    between atoms: _92  and  _93
REMARK   40  A    between atoms: _92  and  _95
REMARK   41  A    between atoms: _95  and  _96
REMARK   42  A    between atoms: _98  and  _100
REMARK   43  A    between atoms: _100  and  _101
REMARK   44  A    between atoms: _100  and  _103
REMARK   45  A    between atoms: _103  and  _104
REMARK   46  A    between atoms: _104  and  _105
REMARK   47  A    between atoms: _105  and  _106
REMARK   48  A    between atoms: _106  and  _107
REMARK   49  A    between atoms: _111  and  _113
REMARK   50  A    between atoms: _113  and  _114
REMARK   51  A    between atoms: _113  and  _116
REMARK   52  A    between atoms: _116  and  _117
REMARK   53  A    between atoms: _117  and  _118
REMARK   54  A    between atoms: _118  and  _119
REMARK   55  A    between atoms: _128  and  _130
REMARK   56  A    between atoms: _130  and  _131
REMARK   57  A    between atoms: _134  and  _136
REMARK   58  A    between atoms: _136  and  _137
REMARK   59  A    between atoms: _136  and  _139
REMARK   60  A    between atoms: _143  and  _144
REMARK   61  A    between atoms: _149  and  _151
REMARK   62  A    between atoms: _151  and  _152
REMARK   63  A    between atoms: _151  and  _154
REMARK   64  A    between atoms: _154  and  _155
REMARK   65  A    between atoms: _165  and  _167
REMARK   66  A    between atoms: _167  and  _168
REMARK   67  A    between atoms: _167  and  _170
REMARK   68  A    between atoms: _170  and  _171
REMARK   69  A    between atoms: _174  and  _176
REMARK   70  A    between atoms: _176  and  _177
REMARK   71  A    between atoms: _176  and  _179
REMARK   72  A    between atoms: _179  and  _180
REMARK   73  A    between atoms: _183  and  _185
REMARK   74  A    between atoms: _185  and  _186
REMARK   75  A    between atoms: _185  and  _188
REMARK   76  A    between atoms: _188  and  _189
REMARK   77  A    between atoms: _192  and  _194
REMARK   78  A    between atoms: _194  and  _195
REMARK   79  A    between atoms: _197  and  _199
REMARK   80  A    between atoms: _199  and  _200
REMARK   81  A    between atoms: _199  and  _202
REMARK   82  A    between atoms: _202  and  _203
REMARK   83  A    between atoms: _208  and  _210
REMARK   84  A    between atoms: _210  and  _211
REMARK   85  A    between atoms: _210  and  _213
REMARK   86  A    between atoms: _213  and  _214
REMARK   87  A    between atoms: _216  and  _218
REMARK   88  A    between atoms: _218  and  _219
REMARK   89  A    between atoms: _218  and  _221
REMARK   90  A    between atoms: _221  and  _222
REMARK   91  A    between atoms: _224  and  _226
REMARK   92  A    between atoms: _226  and  _227
REMARK   93  A    between atoms: _226  and  _229
REMARK   94  A    between atoms: _229  and  _230
REMARK   95  A    between atoms: _235  and  _236
REMARK   96  A    between atoms: _238  and  _240
REMARK   97  A    between atoms: _240  and  _241
REMARK   98  A    between atoms: _240  and  _243
REMARK   99  A    between atoms: _243  and  _244
REMARK  100  A    between atoms: _247  and  _249
REMARK  101  A    between atoms: _249  and  _250
REMARK  102  A    between atoms: _249  and  _252
REMARK  103  A    between atoms: _252  and  _253
REMARK  104  A    between atoms: _256  and  _258
REMARK  105  A    between atoms: _258  and  _259
REMARK  106  A    between atoms: _258  and  _261
REMARK  107  A    between atoms: _261  and  _262
REMARK  108  A    between atoms: _262  and  _263
REMARK  109  A    between atoms: _263  and  _264
REMARK  110  A    between atoms: _264  and  _265
REMARK  111  A    between atoms: _269  and  _271
REMARK  112  A    between atoms: _271  and  _272
REMARK  113  A    between atoms: _271  and  _274
REMARK  114  A    between atoms: _274  and  _275
REMARK  115  A    between atoms: _281  and  _283
REMARK  116  A    between atoms: _283  and  _284
REMARK  117  A    between atoms: _286  and  _288
REMARK  118  A    between atoms: _288  and  _289
REMARK  119  A    between atoms: _291  and  _293
REMARK  120  A    between atoms: _293  and  _294
REMARK  121  A    between atoms: _293  and  _296
REMARK  122  A    between atoms: _296  and  _297
REMARK  123  A    between atoms: _297  and  _298
REMARK  124  A    between atoms: _298  and  _299
REMARK  125  A    between atoms: _308  and  _310
REMARK  126  A    between atoms: _310  and  _311
REMARK  127  A    between atoms: _310  and  _313
REMARK  128  A    between atoms: _313  and  _314
REMARK  129  A    between atoms: _317  and  _319
REMARK  130  A    between atoms: _319  and  _320
REMARK  131  A    between atoms: _319  and  _322
REMARK  132  A    between atoms: _322  and  _323
REMARK  133  A    between atoms: _329  and  _331
REMARK  134  A    between atoms: _331  and  _332
REMARK  135  A    between atoms: _331  and  _334
REMARK  136  A    between atoms: _334  and  _335
REMARK  137  A    between atoms: _338  and  _340
REMARK  138  A    between atoms: _340  and  _341
REMARK  139  A    between atoms: _344  and  _346
REMARK  140  A    between atoms: _346  and  _347
REMARK  141  A    between atoms: _346  and  _349
REMARK  142  A    between atoms: _349  and  _350
REMARK  143  A    between atoms: _350  and  _351
REMARK  144  A    between atoms: _354  and  _356
REMARK  145  A    between atoms: _356  and  _357
REMARK  146  A    between atoms: _356  and  _359
REMARK  147  A    between atoms: _359  and  _360
REMARK  148  A    between atoms: _360  and  _361
REMARK  149  A    between atoms: _361  and  _362
REMARK  150  A    between atoms: _362  and  _363
REMARK  151  A    between atoms: _367  and  _369
REMARK  152  A    between atoms: _369  and  _370
REMARK  153  A    between atoms: _369  and  _372
REMARK  154  A    between atoms: _372  and  _373
REMARK  155  A    between atoms: _376  and  _378
REMARK  156  A    between atoms: _378  and  _379
REMARK  157  A    between atoms: _378  and  _381
REMARK  158  A    between atoms: _381  and  _382
REMARK  159  A    between atoms: _382  and  _383
REMARK  160  A    between atoms: _383  and  _384
REMARK  161  A    between atoms: _384  and  _385
REMARK  162  A    between atoms: _389  and  _391
REMARK  163  A    between atoms: _391  and  _392
REMARK  164  A    between atoms: _391  and  _394
REMARK  165  A    between atoms: _394  and  _395
REMARK  166  A    between atoms: _395  and  _396
REMARK  167  A    between atoms: _396  and  _397
REMARK  168  A    between atoms: _397  and  _398
REMARK  169  A    between atoms: _402  and  _404
REMARK  170  A    between atoms: _404  and  _405
REMARK  171  A    between atoms: _404  and  _407
REMARK  172  A    between atoms: _410  and  _412
REMARK  173  A    between atoms: _412  and  _413
REMARK  174  A    between atoms: _412  and  _415
REMARK  175  A    between atoms: _415  and  _416
REMARK  176  A    between atoms: _419  and  _421
REMARK  177  A    between atoms: _421  and  _422
REMARK  178  A    between atoms: _421  and  _424
REMARK  179  A    between atoms: _424  and  _425
REMARK  180  A    between atoms: _427  and  _429
REMARK  181  A    between atoms: _429  and  _430
REMARK  182  A    between atoms: _433  and  _435
REMARK  183  A    between atoms: _435  and  _436
REMARK  184  A    between atoms: _435  and  _438
REMARK  185  A    between atoms: _438  and  _439
REMARK  186  A    between atoms: _442  and  _444
REMARK  187  A    between atoms: _444  and  _445
REMARK  188  A    between atoms: _444  and  _447
REMARK  189  A    between atoms: _447  and  _448
REMARK  190  A    between atoms: _451  and  _453
REMARK  191  A    between atoms: _453  and  _454
REMARK  192  A    between atoms: _456  and  _458
REMARK  193  A    between atoms: _458  and  _459
REMARK  194  A    between atoms: _461  and  _463
REMARK  195  A    between atoms: _463  and  _464
REMARK  196  A    between atoms: _463  and  _466
REMARK  197  A    between atoms: _466  and  _467
REMARK  198  A    between atoms: _470  and  _472
REMARK  199  A    between atoms: _472  and  _473
REMARK  200  A    between atoms: _472  and  _475
REMARK  201  A    between atoms: _475  and  _476
REMARK  202  A    between atoms: _479  and  _481
REMARK  203  A    between atoms: _481  and  _482
REMARK  204  A    between atoms: _481  and  _484
REMARK  205  A    between atoms: _484  and  _485
REMARK  206  A    between atoms: _485  and  _486
REMARK  207  A    between atoms: _486  and  _487
REMARK  208  A    between atoms: _496  and  _498
REMARK  209  A    between atoms: _498  and  _499
REMARK  210  A    between atoms: _498  and  _501
REMARK  211  A    between atoms: _501  and  _502
REMARK  212  A    between atoms: _506  and  _507
REMARK  213  A    between atoms: _512  and  _514
REMARK  214  A    between atoms: _514  and  _515
REMARK  215  A    between atoms: _514  and  _517
REMARK  216  A    between atoms: _517  and  _518
REMARK  217  A    between atoms: _521  and  _523
REMARK  218  A    between atoms: _523  and  _524
REMARK  219  A    between atoms: _523  and  _526
REMARK  220  A    between atoms: _526  and  _527
REMARK  221  A    between atoms: _527  and  _528
REMARK  222  A    between atoms: _528  and  _529
REMARK  223  A    between atoms: _529  and  _530
REMARK  224  A    between atoms: _534  and  _536
REMARK  225  A    between atoms: _536  and  _537
REMARK  226  A    between atoms: _536  and  _539
REMARK  227  A    between atoms: _539  and  _540
REMARK  228  A    between atoms: _540  and  _541
REMARK  229  A    between atoms: _546  and  _548
REMARK  230  A    between atoms: _548  and  _549
REMARK  231  A    between atoms: _548  and  _551
REMARK  232  A    between atoms: _551  and  _552
REMARK  233  A    between atoms: _555  and  _557
REMARK  234  A    between atoms: _557  and  _558
REMARK  235  A    between atoms: _557  and  _560
REMARK  236  A    between atoms: _560  and  _561
REMARK  237  A    between atoms: _564  and  _566
REMARK  238  A    between atoms: _566  and  _567
REMARK  239  A    between atoms: _566  and  _569
REMARK  240  A    between atoms: _569  and  _570
REMARK  241  A    between atoms: _575  and  _577
REMARK  242  A    between atoms: _577  and  _578
REMARK  243  A    between atoms: _577  and  _580
REMARK  244  A    between atoms: _580  and  _581
REMARK  245  A    between atoms: _584  and  _586
REMARK  246  A    between atoms: _586  and  _587
REMARK  247  A    between atoms: _586  and  _589
REMARK  248  A    between atoms: _589  and  _590
REMARK  249  A    between atoms: _590  and  _591
REMARK  250  A    between atoms: _596  and  _598
REMARK  251  A    between atoms: _598  and  _599
REMARK  252  A    between atoms: _601  and  _603
REMARK  253  A    between atoms: _603  and  _604
REMARK  254  A    between atoms: _603  and  _606
REMARK  255  A    between atoms: _606  and  _607
REMARK  256  A    between atoms: _612  and  _614
REMARK  257  A    between atoms: _614  and  _615
REMARK  258  A    between atoms: _614  and  _617
REMARK  259  A    between atoms: _617  and  _618
REMARK  260  A    between atoms: _621  and  _623
REMARK  261  A    between atoms: _623  and  _624
REMARK  262  A    between atoms: _623  and  _626
REMARK  263  A    between atoms: _626  and  _627
REMARK                            x       y       z     vdW  Elec       q    Type
REMARK                         _______ _______ _______ _____ _____    ______ ____
ROOT
ATOM      1  CA  LEU A   1      90.306  83.261 162.532  0.00  0.00    +0.133 C 
ENDROOT
BRANCH   1   2
ATOM      2  N   LEU A   1      90.249  83.960 161.249  0.00  0.00    -0.239 NA
ATOM      3  H   LEU A   1      89.731  84.861 161.204  0.00  0.00    +0.142 HD
ENDBRANCH   1   2
BRANCH   1   4
ATOM      4  C   LEU A   1      89.775  81.821 162.455  0.00  0.00    +0.224 C 
ATOM      5  O   LEU A   1      90.421  80.889 162.933  0.00  0.00    -0.287 OA
ENDBRANCH   1   4
BRANCH   1   6
ATOM      6  CB  LEU A   1      89.528  84.050 163.614  0.00  0.00    +0.025 C 
BRANCH   6   7
ATOM      7  CG  LEU A   1      89.317  83.340 164.968  0.00  0.00    +0.002 C 
ATOM      8  CD2 LEU A   1      88.442  84.101 165.953  0.00  0.00    +0.000 C 
ATOM      9  CD1 LEU A   1      90.666  82.996 165.623  0.00  0.00    +0.000 C 
ENDBRANCH   6   7
ENDBRANCH   1   6
TORSDOF 4
REMARK  Name = ../refined-set-2016/3d2e/3d2e_pocket.pdb
REMARK  263 active torsions:
REMARK  status: ('A' for Active; 'I' for Inactive)
REMARK    1  A    between atoms: _1  and  _3
REMARK    2  A    between atoms: _3  and  _4
REMARK    3  A    between atoms: _3  and  _6
REMARK    4  A    between atoms: _6  and  _7
REMARK    5  A    between atoms: _10  and  _12
REMARK    6  A    between atoms: _12  and  _13
REMARK    7  A    between atoms: _12  and  _15
REMARK    8  A    between atoms: _15  and  _16
REMARK    9  A    between atoms: _19  and  _21
REMARK   10  A    between atoms: _21  and  _22
REMARK   11  A    between atoms: _24  and  _26
REMARK   12  A    between atoms: _26  and  _27
REMARK   13  A    between atoms: _26  and  _29
REMARK   14  A    between atoms: _29  and  _30
REMARK   15  A    between atoms: _35  and  _37
REMARK   16  A    between atoms: _37  and  _38
REMARK   17  A    between atoms: _37  and  _40
REMARK   18  A    between atoms: _40  and  _41
REMARK   19  A    between atoms: _46  and  _48
REMARK   20  A    between atoms: _48  and  _49
REMARK   21  A    between atoms: _48  and  _51
REMARK   22  A    between atoms: _51  and  _52
REMARK   23  A    between atoms: _57  and  _59
REMARK   24  A    between atoms: _59  and  _60
REMARK   25  A    between atoms: _59  and  _62
REMARK   26  A    between atoms: _62  and  _63
REMARK   27  A    between atoms: _65  and  _67
REMARK   28  A    between atoms: _67  and  _68
REMARK   29  A    between atoms: _67  and  _70
REMARK   30  A    between atoms: _73  and  _75
REMARK   31  A    between atoms: _75  and  _76
REMARK   32  A    between atoms: _75  and  _78
REMARK   33  A    between atoms: _78  and  _79
REMARK   34  A    between atoms: _81  and  _83
REMARK   35  A    between atoms: _83  and  _84
REMARK   36  A    between atoms: _83  and  _86
REMARK   37  A    between atoms: _86  and  _87
REMARK   38  A    between atoms: _90  and  _92
REMARK   39  A    between atoms: _92  and  _93
REMARK   40  A    between atoms: _92  and  _95
REMARK   41  A    between atoms: _95  and  _96
REMARK   42  A    between atoms: _98  and  _100
REMARK   43  A    between atoms: _100  and  _101
REMARK   44  A    between atoms: _100  and  _103
REMARK   45  A    between atoms: _103  and  _104
REMARK   46  A    between atoms: _104  and  _105
REMARK   47  A    between atoms: _105  and  _106
REMARK   48  A    between atoms: _106  and  _107
REMARK   49  A    between atoms: _111  and  _113
REMARK   50  A    between atoms: _113  and  _114
REMARK   51  A    between atoms: _113  and  _116
REMARK   52  A    between atoms: _116  and  _117
REMARK   53  A    between atoms: _117  and  _118
REMARK   54  A    between atoms: _118  and  _119
REMARK   55  A    between atoms: _128  and  _130
REMARK   56  A    between atoms: _130  and  _131
REMARK   57  A    between atoms: _134  and  _136
REMARK   58  A    between atoms: _136  and  _137
REMARK   59  A    between atoms: _136  and  _139
REMARK   60  A    between atoms: _143  and  _144
REMARK   61  A    between atoms: _149  and  _151
REMARK   62  A    between atoms: _151  and  _152
REMARK   63  A    between atoms: _151  and  _154
REMARK   64  A    between atoms: _154  and  _155
REMARK   65  A    between atoms: _165  and  _167
REMARK   66  A    between atoms: _167  and  _168
REMARK   67  A    between atoms: _167  and  _170
REMARK   68  A    between atoms: _170  and  _171
REMARK   69  A    between atoms: _174  and  _176
REMARK   70  A    between atoms: _176  and  _177
REMARK   71  A    between atoms: _176  and  _179
REMARK   72  A    between atoms: _179  and  _180
REMARK   73  A    between atoms: _183  and  _185
REMARK   74  A    between atoms: _185  and  _186
REMARK   75  A    between atoms: _185  and  _188
REMARK   76  A    between atoms: _188  and  _189
REMARK   77  A    between atoms: _192  and  _194
REMARK   78  A    between atoms: _194  and  _195
REMARK   79  A    between atoms: _197  and  _199
REMARK   80  A    between atoms: _199  and  _200
REMARK   81  A    between atoms: _199  and  _202
REMARK   82  A    between atoms: _202  and  _203
REMARK   83  A    between atoms: _208  and  _210
REMARK   84  A    between atoms: _210  and  _211
REMARK   85  A    between atoms: _210  and  _213
REMARK   86  A    between atoms: _213  and  _214
REMARK   87  A    between atoms: _216  and  _218
REMARK   88  A    between atoms: _218  and  _219
REMARK   89  A    between atoms: _218  and  _221
REMARK   90  A    between atoms: _221  and  _222
REMARK   91  A    between atoms: _224  and  _226
REMARK   92  A    between atoms: _226  and  _227
REMARK   93  A    between atoms: _226  and  _229
REMARK   94  A    between atoms: _229  and  _230
REMARK   95  A    between atoms: _235  and  _236
REMARK   96  A    between atoms: _238  and  _240
REMARK   97  A    between atoms: _240  and  _241
REMARK   98  A    between atoms: _240  and  _243
REMARK   99  A    between atoms: _243  and  _244
REMARK  100  A    between atoms: _247  and  _249
REMARK  101  A    between atoms: _249  and  _250
REMARK  102  A    between atoms: _249  and  _252
REMARK  103  A    between atoms: _252  and  _253
REMARK  104  A    between atoms: _256  and  _258
REMARK  105  A    between atoms: _258  and  _259
REMARK  106  A    between atoms: _258  and  _261
REMARK  107  A    between atoms: _261  and  _262
REMARK  108  A    between atoms: _262  and  _263
REMARK  109  A    between atoms: _263  and  _264
REMARK  110  A    between atoms: _264  and  _265
REMARK  111  A    between atoms: _269  and  _271
REMARK  112  A    between atoms: _271  and  _272
REMARK  113  A    between atoms: _271  and  _274
REMARK  114  A    between atoms: _274  and  _275
REMARK  115  A    between atoms: _281  and  _283
REMARK  116  A    between atoms: _283  and  _284
REMARK  117  A    between atoms: _286  and  _288
REMARK  118  A    between atoms: _288  and  _289
REMARK  119  A    between atoms: _291  and  _293
REMARK  120  A    between atoms: _293  and  _294
REMARK  121  A    between atoms: _293  and  _296
REMARK  122  A    between atoms: _296  and  _297
REMARK  123  A    between atoms: _297  and  _298
REMARK  124  A    between atoms: _298  and  _299
REMARK  125  A    between atoms: _308  and  _310
REMARK  126  A    between atoms: _310  and  _311
REMARK  127  A    between atoms: _310  and  _313
REMARK  128  A    between atoms: _313  and  _314
REMARK  129  A    between atoms: _317  and  _319
REMARK  130  A    between atoms: _319  and  _320
REMARK  131  A    between atoms: _319  and  _322
REMARK  132  A    between atoms: _322  and  _323
REMARK  133  A    between atoms: _329  and  _331
REMARK  134  A    between atoms: _331  and  _332
REMARK  135  A    between atoms: _331  and  _334
REMARK  136  A    between atoms: _334  and  _335
REMARK  137  A    between atoms: _338  and  _340
REMARK  138  A    between atoms: _340  and  _341
REMARK  139  A    between atoms: _344  and  _346
REMARK  140  A    between atoms: _346  and  _347
REMARK  141  A    between atoms: _346  and  _349
REMARK  142  A    between atoms: _349  and  _350
REMARK  143  A    between atoms: _350  and  _351
REMARK  144  A    between atoms: _354  and  _356
REMARK  145  A    between atoms: _356  and  _357
REMARK  146  A    between atoms: _356  and  _359
REMARK  147  A    between atoms: _359  and  _360
REMARK  148  A    between atoms: _360  and  _361
REMARK  149  A    between atoms: _361  and  _362
REMARK  150  A    between atoms: _362  and  _363
REMARK  151  A    between atoms: _367  and  _369
REMARK  152  A    between atoms: _369  and  _370
REMARK  153  A    between atoms: _369  and  _372
REMARK  154  A    between atoms: _372  and  _373
REMARK  155  A    between atoms: _376  and  _378
REMARK  156  A    between atoms: _378  and  _379
REMARK  157  A    between atoms: _378  and  _381
REMARK  158  A    between atoms: _381  and  _382
REMARK  159  A    between atoms: _382  and  _383
REMARK  160  A    between atoms: _383  and  _384
REMARK  161  A    between atoms: _384  and  _385
REMARK  162  A    between atoms: _389  and  _391
REMARK  163  A    between atoms: _391  and  _392
REMARK  164  A    between atoms: _391  and  _394
REMARK  165  A    between atoms: _394  and  _395
REMARK  166  A    between atoms: _395  and  _396
REMARK  167  A    between atoms: _396  and  _397
REMARK  168  A    between atoms: _397  and  _398
REMARK  169  A    between atoms: _402  and  _404
REMARK  170  A    between atoms: _404  and  _405
REMARK  171  A    between atoms: _404  and  _407
REMARK  172  A    between atoms: _410  and  _412
REMARK  173  A    between atoms: _412  and  _413
REMARK  174  A    between atoms: _412  and  _415
REMARK  175  A    between atoms: _415  and  _416
REMARK  176  A    between atoms: _419  and  _421
REMARK  177  A    between atoms: _421  and  _422
REMARK  178  A    between atoms: _421  and  _424
REMARK  179  A    between atoms: _424  and  _425
REMARK  180  A    between atoms: _427  and  _429
REMARK  181  A    between atoms: _429  and  _430
REMARK  182  A    between atoms: _433  and  _435
REMARK  183  A    between atoms: _435  and  _436
REMARK  184  A    between atoms: _435  and  _438
REMARK  185  A    between atoms: _438  and  _439
REMARK  186  A    between atoms: _442  and  _444
REMARK  187  A    between atoms: _444  and  _445
REMARK  188  A    between atoms: _444  and  _447
REMARK  189  A    between atoms: _447  and  _448
REMARK  190  A    between atoms: _451  and  _453
REMARK  191  A    between atoms: _453  and  _454
REMARK  192  A    between atoms: _456  and  _458
REMARK  193  A    between atoms: _458  and  _459
REMARK  194  A    between atoms: _461  and  _463
REMARK  195  A    between atoms: _463  and  _464
REMARK  196  A    between atoms: _463  and  _466
REMARK  197  A    between atoms: _466  and  _467
REMARK  198  A    between atoms: _470  and  _472
REMARK  199  A    between atoms: _472  and  _473
REMARK  200  A    between atoms: _472  and  _475
REMARK  201  A    between atoms: _475  and  _476
REMARK  202  A    between atoms: _479  and  _481
REMARK  203  A    between atoms: _481  and  _482
REMARK  204  A    between atoms: _481  and  _484
REMARK  205  A    between atoms: _484  and  _485
REMARK  206  A    between atoms: _485  and  _486
REMARK  207  A    between atoms: _486  and  _487
REMARK  208  A    between atoms: _496  and  _498
REMARK  209  A    between atoms: _498  and  _499
REMARK  210  A    between atoms: _498  and  _501
REMARK  211  A    between atoms: _501  and  _502
REMARK  212  A    between atoms: _506  and  _507
REMARK  213  A    between atoms: _512  and  _514
REMARK  214  A    between atoms: _514  and  _515
REMARK  215  A    between atoms: _514  and  _517
REMARK  216  A    between atoms: _517  and  _518
REMARK  217  A    between atoms: _521  and  _523
REMARK  218  A    between atoms: _523  and  _524
REMARK  219  A    between atoms: _523  and  _526
REMARK  220  A    between atoms: _526  and  _527
REMARK  221  A    between atoms: _527  and  _528
REMARK  222  A    between atoms: _528  and  _529
REMARK  223  A    between atoms: _529  and  _530
REMARK  224  A    between atoms: _534  and  _536
REMARK  225  A    between atoms: _536  and  _537
REMARK  226  A    between atoms: _536  and  _539
REMARK  227  A    between atoms: _539  and  _540
REMARK  228  A    between atoms: _540  and  _541
REMARK  229  A    between atoms: _546  and  _548
REMARK  230  A    between atoms: _548  and  _549
REMARK  231  A    between atoms: _548  and  _551
REMARK  232  A    between atoms: _551  and  _552
REMARK  233  A    between atoms: _555  and  _557
REMARK  234  A    between atoms: _557  and  _558
REMARK  235  A    between atoms: _557  and  _560
REMARK  236  A    between atoms: _560  and  _561
REMARK  237  A    between atoms: _564  and  _566
REMARK  238  A    between atoms: _566  and  _567
REMARK  239  A    between atoms: _566  and  _569
REMARK  240  A    between atoms: _569  and  _570
REMARK  241  A    between atoms: _575  and  _577
REMARK  242  A    between atoms: _577  and  _578
REMARK  243  A    between atoms: _577  and  _580
REMARK  244  A    between atoms: _580  and  _581
REMARK  245  A    between atoms: _584  and  _586
REMARK  246  A    between atoms: _586  and  _587
REMARK  247  A    between atoms: _586  and  _589
REMARK  248  A    between atoms: _589  and  _590
REMARK  249  A    between atoms: _590  and  _591
REMARK  250  A    between atoms: _596  and  _598
REMARK  251  A    between atoms: _598  and  _599
REMARK  252  A    between atoms: _601  and  _603
REMARK  253  A    between atoms: _603  and  _604
REMARK  254  A    between atoms: _603  and  _606
REMARK  255  A    between atoms: _606  and  _607
REMARK  256  A    between atoms: _612  and  _614
REMARK  257  A    between atoms: _614  and  _615
REMARK  258  A    between atoms: _614  and  _617
REMARK  259  A    between atoms: _617  and  _618
REMARK  260  A    between atoms: _621  and  _623
REMARK  261  A    between atoms: _623  and  _624
REMARK  262  A    between atoms: _623  and  _626
REMARK  263  A    between atoms: _626  and  _627
REMARK                            x       y       z     vdW  Elec       q    Type
REMARK                         _______ _______ _______ _____ _____    ______ ____
ROOT
ATOM      1  CA  THR A   5      80.721  79.304 173.682  0.00  0.00    +0.176 C 
ENDROOT
BRANCH   1   2
ATOM      2  C   THR A   5      80.145  80.607 173.076  0.00  0.00    +0.243 C 
ATOM      3  N   ARG A   6      80.731  81.755 173.409  0.00  0.00    -0.297 N 
ATOM      4  H   ARG A   6      81.475  81.754 174.136  0.00  0.00    +0.150 HD
ATOM      5  O   THR A   5      79.186  80.559 172.302  0.00  0.00    -0.273 OA
BRANCH   3   6
ATOM      6  CA  ARG A   6      80.351  83.019 172.774  0.00  0.00    +0.149 C 
BRANCH   6   7
ATOM      7  C   ARG A   6      80.911  83.165 171.345  0.00  0.00    +0.241 C 
ATOM      8  N   ILE A   7      81.774  82.231 170.929  0.00  0.00    -0.297 N 
ATOM      9  H   ILE A   7      82.047  81.467 171.580  0.00  0.00    +0.150 HD
ATOM     10  O   ARG A   6      80.553  84.106 170.622  0.00  0.00    -0.273 OA
BRANCH   8  11
ATOM     11  CA  ILE A   7      82.346  82.258 169.575  0.00  0.00    +0.149 C 
BRANCH  11  12
ATOM     12  C   ILE A   7      81.279  81.778 168.597  0.00  0.00    +0.244 C 
ATOM     13  O   ILE A   7      80.715  80.697 168.789  0.00  0.00    -0.273 OA
ATOM     14  N   PRO A   8      80.961  82.606 167.571  0.00  0.00    -0.273 N 
ATOM     15  CD  PRO A   8      81.558  83.928 167.289  0.00  0.00    +0.094 C 
ATOM     16  CG  PRO A   8      80.490  84.605 166.486  0.00  0.00    +0.024 C 
ATOM     17  CB  PRO A   8      79.909  83.483 165.650  0.00  0.00    +0.030 C 
ATOM     18  CA  PRO A   8      79.900  82.281 166.601  0.00  0.00    +0.140 C 
BRANCH  18  19
ATOM     19  C   PRO A   8      80.061  80.957 165.844  0.00  0.00    +0.227 C 
ATOM     20  O   PRO A   8      79.079  80.251 165.652  0.00  0.00    -0.286 OA
ENDBRANCH  18  19
ENDBRANCH  11  12
BRANCH  11  21
ATOM     21  CB  ILE A   7      83.655  81.432 169.468  0.00  0.00    +0.027 C 
ATOM     22  CG2 ILE A   7      84.074  81.224 168.010  0.00  0.00    +0.002 C 
BRANCH  21  23
ATOM     23  CG1 ILE A   7      84.782  82.120 170.255  0.00  0.00    +0.002 C 
ATOM     24  CD1 ILE A   7      86.030  81.284 170.461  0.00  0.00    +0.000 C 
ENDBRANCH  21  23
ENDBRANCH  11  21
ENDBRANCH   8  11
ENDBRANCH   6   7
BRANCH   6  25
ATOM     25  CB  ARG A   6      80.744  84.211 173.667  0.00  0.00    +0.033 C 
BRANCH  25  26
ATOM     26  CG  ARG A   6      80.033  84.206 175.042  0.00  0.00    +0.045 C 
BRANCH  26  27
ATOM     27  CD  ARG A   6      80.760  85.030 176.102  0.00  0.00    +0.174 C 
BRANCH  27  28
ATOM     28  NE  ARG A   6      80.217  84.804 177.446  0.00  0.00    -0.265 N 
ATOM     29  CZ  ARG A   6      80.866  85.080 178.581  0.00  0.00    +0.342 C 
ATOM     30  NH2 ARG A   6      80.285  84.841 179.752  0.00  0.00    -0.292 N 
ATOM     31 HH21 ARG A   6      80.789  85.055 180.636  0.00  0.00    +0.255 HD
ATOM     32 HH22 ARG A   6      79.326  84.440 179.784  0.00  0.00    +0.255 HD
ATOM     33  NH1 ARG A   6      82.103  85.581 178.556  0.00  0.00    -0.292 N 
ATOM     34 HH11 ARG A   6      82.597  85.791 179.447  0.00  0.00    +0.255 HD
ATOM     35 HH12 ARG A   6      82.573  85.761 177.646  0.00  0.00    +0.255 HD
ATOM     36  HE  ARG A   6      79.261  84.401 177.521  0.00  0.00    +0.259 HD
ENDBRANCH  27  28
ENDBRANCH  26  27
ENDBRANCH  25  26
ENDBRANCH   6  25
ENDBRANCH   3   6
ENDBRANCH   1   2
BRANCH   1  38
ATOM     37  C   THR A   4      83.113  79.856 173.805  0.00  0.00    +0.243 C 
ATOM     38  N   THR A   5      81.994  79.465 174.422  0.00  0.00    -0.295 N 
ATOM     39  H   THR A   5      82.017  79.270 175.443  0.00  0.00    +0.150 HD
ATOM     40  O   THR A   4      83.188  79.986 172.585  0.00  0.00    -0.273 OA
BRANCH  37  41
ATOM     41  CA  THR A   4      84.324  80.205 174.671  0.00  0.00    +0.176 C 
BRANCH  41  43
ATOM     42  C   GLY A   3      83.404  81.673 176.395  0.00  0.00    +0.243 C 
ATOM     43  N   THR A   4      83.992  80.529 176.061  0.00  0.00    -0.295 N 
ATOM     44  H   THR A   4      84.223  79.843 176.808  0.00  0.00    +0.150 HD
ATOM     45  O   GLY A   3      83.030  82.494 175.569  0.00  0.00    -0.273 OA
BRANCH  42  46
ATOM     46  CA  GLY A   3      83.203  81.917 177.874  0.00  0.00    +0.176 C 
BRANCH  46  48
ATOM     47  C   GLY A   2      81.774  80.056 178.523  0.00  0.00    +0.243 C 
ATOM     48  N   GLY A   3      82.904  80.739 178.663  0.00  0.00    -0.295 N 
ATOM     49  H   GLY A   3      83.600  80.417 179.365  0.00  0.00    +0.150 HD
ATOM     50  O   GLY A   2      80.921  80.323 177.654  0.00  0.00    -0.273 OA
BRANCH  47  51
ATOM     51  CA  GLY A   2      81.558  78.904 179.484  0.00  0.00    +0.176 C 
BRANCH  51  53
ATOM     52  C   ILE A   1      79.340  77.971 179.015  0.00  0.00    +0.238 C 
ATOM     53  N   GLY A   2      80.140  78.712 179.788  0.00  0.00    -0.296 N 
ATOM     54  H   GLY A   2      79.741  79.167 180.634  0.00  0.00    +0.150 HD
ATOM     55  O   ILE A   1      79.751  77.307 178.051  0.00  0.00    -0.274 OA
BRANCH  52  56
ATOM     56  CA  ILE A   1      77.853  77.941 179.377  0.00  0.00    +0.145 C 
BRANCH  56  57
ATOM     57  N   ILE A   1      77.105  77.204 178.339  0.00  0.00    -0.238 NA
ATOM     58  H   ILE A   1      77.498  76.314 177.971  0.00  0.00    +0.142 HD
ENDBRANCH  56  57
BRANCH  56  59
ATOM     59  CB  ILE A   1      77.650  77.382 180.813  0.00  0.00    +0.025 C 
ATOM     60  CG2 ILE A   1      76.192  77.540 181.272  0.00  0.00    +0.002 C 
BRANCH  59  61
ATOM     61  CG1 ILE A   1      78.097  75.930 180.899  0.00  0.00    +0.002 C 
ATOM     62  CD1 ILE A   1      78.232  75.356 182.341  0.00  0.00    +0.000 C 
ENDBRANCH  59  61
ENDBRANCH  56  59
ENDBRANCH  52  56
ENDBRANCH  51  53
ENDBRANCH  47  51
ENDBRANCH  46  48
ENDBRANCH  42  46
ENDBRANCH  41  43
BRANCH  41  63
ATOM     63  CB  THR A   4      85.465  79.188 174.627  0.00  0.00    +0.137 C 
ATOM     64  CG2 THR A   4      85.905  78.814 173.190  0.00  0.00    +0.034 C 
BRANCH  63  65
ATOM     65  OG1 THR A   4      86.572  79.764 175.307  0.00  0.00    -0.382 OA
ATOM     66  HG1 THR A   4      86.836  80.603 174.853  0.00  0.00    +0.210 HD
ENDBRANCH  63  65
ENDBRANCH  41  63
ENDBRANCH  37  41
ENDBRANCH   1  38
BRANCH   1  67
ATOM     67  CB  THR A   5      79.592  78.547 174.493  0.00  0.00    +0.137 C 
ATOM     68  CG2 THR A   5      80.051  77.165 174.895  0.00  0.00    +0.034 C 
BRANCH  67  69
ATOM     69  OG1 THR A   5      79.210  79.299 175.652  0.00  0.00    -0.382 OA
ATOM     70  HG1 THR A   5      79.998  79.422 176.238  0.00  0.00    +0.210 HD
ENDBRANCH  67  69
ENDBRANCH   1  67
TORSDOF 27
REMARK  Name = ../refined-set-2016/3d2e/3d2e_pocket.pdb
REMARK  263 active torsions:
REMARK  status: ('A' for Active; 'I' for Inactive)
REMARK    1  A    between atoms: _1  and  _3
REMARK    2  A    between atoms: _3  and  _4
REMARK    3  A    between atoms: _3  and  _6
REMARK    4  A    between atoms: _6  and  _7
REMARK    5  A    between atoms: _10  and  _12
REMARK    6  A    between atoms: _12  and  _13
REMARK    7  A    between atoms: _12  and  _15
REMARK    8  A    between atoms: _15  and  _16
REMARK    9  A    between atoms: _19  and  _21
REMARK   10  A    between atoms: _21  and  _22
REMARK   11  A    between atoms: _24  and  _26
REMARK   12  A    between atoms: _26  and  _27
REMARK   13  A    between atoms: _26  and  _29
REMARK   14  A    between atoms: _29  and  _30
REMARK   15  A    between atoms: _35  and  _37
REMARK   16  A    between atoms: _37  and  _38
REMARK   17  A    between atoms: _37  and  _40
REMARK   18  A    between atoms: _40  and  _41
REMARK   19  A    between atoms: _46  and  _48
REMARK   20  A    between atoms: _48  and  _49
REMARK   21  A    between atoms: _48  and  _51
REMARK   22  A    between atoms: _51  and  _52
REMARK   23  A    between atoms: _57  and  _59
REMARK   24  A    between atoms: _59  and  _60
REMARK   25  A    between atoms: _59  and  _62
REMARK   26  A    between atoms: _62  and  _63
REMARK   27  A    between atoms: _65  and  _67
REMARK   28  A    between atoms: _67  and  _68
REMARK   29  A    between atoms: _67  and  _70
REMARK   30  A    between atoms: _73  and  _75
REMARK   31  A    between atoms: _75  and  _76
REMARK   32  A    between atoms: _75  and  _78
REMARK   33  A    between atoms: _78  and  _79
REMARK   34  A    between atoms: _81  and  _83
REMARK   35  A    between atoms: _83  and  _84
REMARK   36  A    between atoms: _83  and  _86
REMARK   37  A    between atoms: _86  and  _87
REMARK   38  A    between atoms: _90  and  _92
REMARK   39  A    between atoms: _92  and  _93
REMARK   40  A    between atoms: _92  and  _95
REMARK   41  A    between atoms: _95  and  _96
REMARK   42  A    between atoms: _98  and  _100
REMARK   43  A    between atoms: _100  and  _101
REMARK   44  A    between atoms: _100  and  _103
REMARK   45  A    between atoms: _103  and  _104
REMARK   46  A    between atoms: _104  and  _105
REMARK   47  A    between atoms: _105  and  _106
REMARK   48  A    between atoms: _106  and  _107
REMARK   49  A    between atoms: _111  and  _113
REMARK   50  A    between atoms: _113  and  _114
REMARK   51  A    between atoms: _113  and  _116
REMARK   52  A    between atoms: _116  and  _117
REMARK   53  A    between atoms: _117  and  _118
REMARK   54  A    between atoms: _118  and  _119
REMARK   55  A    between atoms: _128  and  _130
REMARK   56  A    between atoms: _130  and  _131
REMARK   57  A    between atoms: _134  and  _136
REMARK   58  A    between atoms: _136  and  _137
REMARK   59  A    between atoms: _136  and  _139
REMARK   60  A    between atoms: _143  and  _144
REMARK   61  A    between atoms: _149  and  _151
REMARK   62  A    between atoms: _151  and  _152
REMARK   63  A    between atoms: _151  and  _154
REMARK   64  A    between atoms: _154  and  _155
REMARK   65  A    between atoms: _165  and  _167
REMARK   66  A    between atoms: _167  and  _168
REMARK   67  A    between atoms: _167  and  _170
REMARK   68  A    between atoms: _170  and  _171
REMARK   69  A    between atoms: _174  and  _176
REMARK   70  A    between atoms: _176  and  _177
REMARK   71  A    between atoms: _176  and  _179
REMARK   72  A    between atoms: _179  and  _180
REMARK   73  A    between atoms: _183  and  _185
REMARK   74  A    between atoms: _185  and  _186
REMARK   75  A    between atoms: _185  and  _188
REMARK   76  A    between atoms: _188  and  _189
REMARK   77  A    between atoms: _192  and  _194
REMARK   78  A    between atoms: _194  and  _195
REMARK   79  A    between atoms: _197  and  _199
REMARK   80  A    between atoms: _199  and  _200
REMARK   81  A    between atoms: _199  and  _202
REMARK   82  A    between atoms: _202  and  _203
REMARK   83  A    between atoms: _208  and  _210
REMARK   84  A    between atoms: _210  and  _211
REMARK   85  A    between atoms: _210  and  _213
REMARK   86  A    between atoms: _213  and  _214
REMARK   87  A    between atoms: _216  and  _218
REMARK   88  A    between atoms: _218  and  _219
REMARK   89  A    between atoms: _218  and  _221
REMARK   90  A    between atoms: _221  and  _222
REMARK   91  A    between atoms: _224  and  _226
REMARK   92  A    between atoms: _226  and  _227
REMARK   93  A    between atoms: _226  and  _229
REMARK   94  A    between atoms: _229  and  _230
REMARK   95  A    between atoms: _235  and  _236
REMARK   96  A    between atoms: _238  and  _240
REMARK   97  A    between atoms: _240  and  _241
REMARK   98  A    between atoms: _240  and  _243
REMARK   99  A    between atoms: _243  and  _244
REMARK  100  A    between atoms: _247  and  _249
REMARK  101  A    between atoms: _249  and  _250
REMARK  102  A    between atoms: _249  and  _252
REMARK  103  A    between atoms: _252  and  _253
REMARK  104  A    between atoms: _256  and  _258
REMARK  105  A    between atoms: _258  and  _259
REMARK  106  A    between atoms: _258  and  _261
REMARK  107  A    between atoms: _261  and  _262
REMARK  108  A    between atoms: _262  and  _263
REMARK  109  A    between atoms: _263  and  _264
REMARK  110  A    between atoms: _264  and  _265
REMARK  111  A    between atoms: _269  and  _271
REMARK  112  A    between atoms: _271  and  _272
REMARK  113  A    between atoms: _271  and  _274
REMARK  114  A    between atoms: _274  and  _275
REMARK  115  A    between atoms: _281  and  _283
REMARK  116  A    between atoms: _283  and  _284
REMARK  117  A    between atoms: _286  and  _288
REMARK  118  A    between atoms: _288  and  _289
REMARK  119  A    between atoms: _291  and  _293
REMARK  120  A    between atoms: _293  and  _294
REMARK  121  A    between atoms: _293  and  _296
REMARK  122  A    between atoms: _296  and  _297
REMARK  123  A    between atoms: _297  and  _298
REMARK  124  A    between atoms: _298  and  _299
REMARK  125  A    between atoms: _308  and  _310
REMARK  126  A    between atoms: _310  and  _311
REMARK  127  A    between atoms: _310  and  _313
REMARK  128  A    between atoms: _313  and  _314
REMARK  129  A    between atoms: _317  and  _319
REMARK  130  A    between atoms: _319  and  _320
REMARK  131  A    between atoms: _319  and  _322
REMARK  132  A    between atoms: _322  and  _323
REMARK  133  A    between atoms: _329  and  _331
REMARK  134  A    between atoms: _331  and  _332
REMARK  135  A    between atoms: _331  and  _334
REMARK  136  A    between atoms: _334  and  _335
REMARK  137  A    between atoms: _338  and  _340
REMARK  138  A    between atoms: _340  and  _341
REMARK  139  A    between atoms: _344  and  _346
REMARK  140  A    between atoms: _346  and  _347
REMARK  141  A    between atoms: _346  and  _349
REMARK  142  A    between atoms: _349  and  _350
REMARK  143  A    between atoms: _350  and  _351
REMARK  144  A    between atoms: _354  and  _356
REMARK  145  A    between atoms: _356  and  _357
REMARK  146  A    between atoms: _356  and  _359
REMARK  147  A    between atoms: _359  and  _360
REMARK  148  A    between atoms: _360  and  _361
REMARK  149  A    between atoms: _361  and  _362
REMARK  150  A    between atoms: _362  and  _363
REMARK  151  A    between atoms: _367  and  _369
REMARK  152  A    between atoms: _369  and  _370
REMARK  153  A    between atoms: _369  and  _372
REMARK  154  A    between atoms: _372  and  _373
REMARK  155  A    between atoms: _376  and  _378
REMARK  156  A    between atoms: _378  and  _379
REMARK  157  A    between atoms: _378  and  _381
REMARK  158  A    between atoms: _381  and  _382
REMARK  159  A    between atoms: _382  and  _383
REMARK  160  A    between atoms: _383  and  _384
REMARK  161  A    between atoms: _384  and  _385
REMARK  162  A    between atoms: _389  and  _391
REMARK  163  A    between atoms: _391  and  _392
REMARK  164  A    between atoms: _391  and  _394
REMARK  165  A    between atoms: _394  and  _395
REMARK  166  A    between atoms: _395  and  _396
REMARK  167  A    between atoms: _396  and  _397
REMARK  168  A    between atoms: _397  and  _398
REMARK  169  A    between atoms: _402  and  _404
REMARK  170  A    between atoms: _404  and  _405
REMARK  171  A    between atoms: _404  and  _407
REMARK  172  A    between atoms: _410  and  _412
REMARK  173  A    between atoms: _412  and  _413
REMARK  174  A    between atoms: _412  and  _415
REMARK  175  A    between atoms: _415  and  _416
REMARK  176  A    between atoms: _419  and  _421
REMARK  177  A    between atoms: _421  and  _422
REMARK  178  A    between atoms: _421  and  _424
REMARK  179  A    between atoms: _424  and  _425
REMARK  180  A    between atoms: _427  and  _429
REMARK  181  A    between atoms: _429  and  _430
REMARK  182  A    between atoms: _433  and  _435
REMARK  183  A    between atoms: _435  and  _436
REMARK  184  A    between atoms: _435  and  _438
REMARK  185  A    between atoms: _438  and  _439
REMARK  186  A    between atoms: _442  and  _444
REMARK  187  A    between atoms: _444  and  _445
REMARK  188  A    between atoms: _444  and  _447
REMARK  189  A    between atoms: _447  and  _448
REMARK  190  A    between atoms: _451  and  _453
REMARK  191  A    between atoms: _453  and  _454
REMARK  192  A    between atoms: _456  and  _458
REMARK  193  A    between atoms: _458  and  _459
REMARK  194  A    between atoms: _461  and  _463
REMARK  195  A    between atoms: _463  and  _464
REMARK  196  A    between atoms: _463  and  _466
REMARK  197  A    between atoms: _466  and  _467
REMARK  198  A    between atoms: _470  and  _472
REMARK  199  A    between atoms: _472  and  _473
REMARK  200  A    between atoms: _472  and  _475
REMARK  201  A    between atoms: _475  and  _476
REMARK  202  A    between atoms: _479  and  _481
REMARK  203  A    between atoms: _481  and  _482
REMARK  204  A    between atoms: _481  and  _484
REMARK  205  A    between atoms: _484  and  _485
REMARK  206  A    between atoms: _485  and  _486
REMARK  207  A    between atoms: _486  and  _487
REMARK  208  A    between atoms: _496  and  _498
REMARK  209  A    between atoms: _498  and  _499
REMARK  210  A    between atoms: _498  and  _501
REMARK  211  A    between atoms: _501  and  _502
REMARK  212  A    between atoms: _506  and  _507
REMARK  213  A    between atoms: _512  and  _514
REMARK  214  A    between atoms: _514  and  _515
REMARK  215  A    between atoms: _514  and  _517
REMARK  216  A    between atoms: _517  and  _518
REMARK  217  A    between atoms: _521  and  _523
REMARK  218  A    between atoms: _523  and  _524
REMARK  219  A    between atoms: _523  and  _526
REMARK  220  A    between atoms: _526  and  _527
REMARK  221  A    between atoms: _527  and  _528
REMARK  222  A    between atoms: _528  and  _529
REMARK  223  A    between atoms: _529  and  _530
REMARK  224  A    between atoms: _534  and  _536
REMARK  225  A    between atoms: _536  and  _537
REMARK  226  A    between atoms: _536  and  _539
REMARK  227  A    between atoms: _539  and  _540
REMARK  228  A    between atoms: _540  and  _541
REMARK  229  A    between atoms: _546  and  _548
REMARK  230  A    between atoms: _548  and  _549
REMARK  231  A    between atoms: _548  and  _551
REMARK  232  A    between atoms: _551  and  _552
REMARK  233  A    between atoms: _555  and  _557
REMARK  234  A    between atoms: _557  and  _558
REMARK  235  A    between atoms: _557  and  _560
REMARK  236  A    between atoms: _560  and  _561
REMARK  237  A    between atoms: _564  and  _566
REMARK  238  A    between atoms: _566  and  _567
REMARK  239  A    between atoms: _566  and  _569
REMARK  240  A    between atoms: _569  and  _570
REMARK  241  A    between atoms: _575  and  _577
REMARK  242  A    between atoms: _577  and  _578
REMARK  243  A    between atoms: _577  and  _580
REMARK  244  A    between atoms: _580  and  _581
REMARK  245  A    between atoms: _584  and  _586
REMARK  246  A    between atoms: _586  and  _587
REMARK  247  A    between atoms: _586  and  _589
REMARK  248  A    between atoms: _589  and  _590
REMARK  249  A    between atoms: _590  and  _591
REMARK  250  A    between atoms: _596  and  _598
REMARK  251  A    between atoms: _598  and  _599
REMARK  252  A    between atoms: _601  and  _603
REMARK  253  A    between atoms: _603  and  _604
REMARK  254  A    between atoms: _603  and  _606
REMARK  255  A    between atoms: _606  and  _607
REMARK  256  A    between atoms: _612  and  _614
REMARK  257  A    between atoms: _614  and  _615
REMARK  258  A    between atoms: _614  and  _617
REMARK  259  A    between atoms: _617  and  _618
REMARK  260  A    between atoms: _621  and  _623
REMARK  261  A    between atoms: _623  and  _624
REMARK  262  A    between atoms: _623  and  _626
REMARK  263  A    between atoms: _626  and  _627
REMARK                            x       y       z     vdW  Elec       q    Type
REMARK                         _______ _______ _______ _____ _____    ______ ____
ROOT
ATOM      1  C   LEU A   1      79.663  77.025 168.069  0.00  0.00    +0.238 C 
ATOM      2  N   LYS A   2      78.991  78.163 168.262  0.00  0.00    -0.298 N 
ATOM      3  H   LYS A   2      79.528  79.054 168.276  0.00  0.00    +0.150 HD
ATOM      4  O   LEU A   1      79.122  75.930 168.010  0.00  0.00    -0.274 OA
ENDROOT
BRANCH   1   5
ATOM      5  CA  LEU A   1      81.170  77.146 167.854  0.00  0.00    +0.145 C 
BRANCH   5   6
ATOM      6  N   LEU A   1      81.474  78.203 166.893  0.00  0.00    -0.238 NA
ATOM      7  H   LEU A   1      82.022  79.028 167.209  0.00  0.00    +0.142 HD
ENDBRANCH   5   6
BRANCH   5   8
ATOM      8  CB  LEU A   1      81.914  77.385 169.183  0.00  0.00    +0.026 C 
BRANCH   8   9
ATOM      9  CG  LEU A   1      83.445  77.409 169.107  0.00  0.00    +0.002 C 
ATOM     10  CD2 LEU A   1      84.051  77.493 170.488  0.00  0.00    +0.000 C 
ATOM     11  CD1 LEU A   1      83.957  76.167 168.404  0.00  0.00    +0.000 C 
ENDBRANCH   8   9
ENDBRANCH   5   8
ENDBRANCH   1   5
BRANCH   2  12
ATOM     12  CA  LYS A   2      77.538  78.227 168.456  0.00  0.00    +0.137 C 
BRANCH  12  13
ATOM     13  C   LYS A   2      76.761  77.593 167.326  0.00  0.00    +0.227 C 
ATOM     14  O   LYS A   2      75.841  76.801 167.586  0.00  0.00    -0.286 OA
ENDBRANCH  12  13
BRANCH  12  15
ATOM     15  CB  LYS A   2      77.078  79.670 168.647  0.00  0.00    +0.028 C 
BRANCH  15  16
ATOM     16  CG  LYS A   2      77.320  80.184 170.042  0.00  0.00    -0.000 C 
BRANCH  16  17
ATOM     17  CD  LYS A   2      77.291  81.702 170.100  0.00  0.00    -0.024 C 
BRANCH  17  18
ATOM     18  CE  LYS A   2      76.026  82.218 170.743  0.00  0.00    -0.086 C 
BRANCH  18  19
ATOM     19  NZ  LYS A   2      76.171  83.694 170.990  0.00  0.00    +0.380 N 
ATOM     20  HZ1 LYS A   2      76.980  83.861 171.622  0.00  0.00    -0.089 HD
ATOM     21  HZ2 LYS A   2      75.303  84.057 171.433  0.00  0.00    -0.089 HD
ATOM     22  HZ3 LYS A   2      76.330  84.182 170.085  0.00  0.00    -0.089 HD
ENDBRANCH  18  19
ENDBRANCH  17  18
ENDBRANCH  16  17
ENDBRANCH  15  16
ENDBRANCH  12  15
ENDBRANCH   2  12
TORSDOF 11
REMARK  Name = ../refined-set-2016/3d2e/3d2e_pocket.pdb
REMARK  263 active torsions:
REMARK  status: ('A' for Active; 'I' for Inactive)
REMARK    1  A    between atoms: _1  and  _3
REMARK    2  A    between atoms: _3  and  _4
REMARK    3  A    between atoms: _3  and  _6
REMARK    4  A    between atoms: _6  and  _7
REMARK    5  A    between atoms: _10  and  _12
REMARK    6  A    between atoms: _12  and  _13
REMARK    7  A    between atoms: _12  and  _15
REMARK    8  A    between atoms: _15  and  _16
REMARK    9  A    between atoms: _19  and  _21
REMARK   10  A    between atoms: _21  and  _22
REMARK   11  A    between atoms: _24  and  _26
REMARK   12  A    between atoms: _26  and  _27
REMARK   13  A    between atoms: _26  and  _29
REMARK   14  A    between atoms: _29  and  _30
REMARK   15  A    between atoms: _35  and  _37
REMARK   16  A    between atoms: _37  and  _38
REMARK   17  A    between atoms: _37  and  _40
REMARK   18  A    between atoms: _40  and  _41
REMARK   19  A    between atoms: _46  and  _48
REMARK   20  A    between atoms: _48  and  _49
REMARK   21  A    between atoms: _48  and  _51
REMARK   22  A    between atoms: _51  and  _52
REMARK   23  A    between atoms: _57  and  _59
REMARK   24  A    between atoms: _59  and  _60
REMARK   25  A    between atoms: _59  and  _62
REMARK   26  A    between atoms: _62  and  _63
REMARK   27  A    between atoms: _65  and  _67
REMARK   28  A    between atoms: _67  and  _68
REMARK   29  A    between atoms: _67  and  _70
REMARK   30  A    between atoms: _73  and  _75
REMARK   31  A    between atoms: _75  and  _76
REMARK   32  A    between atoms: _75  and  _78
REMARK   33  A    between atoms: _78  and  _79
REMARK   34  A    between atoms: _81  and  _83
REMARK   35  A    between atoms: _83  and  _84
REMARK   36  A    between atoms: _83  and  _86
REMARK   37  A    between atoms: _86  and  _87
REMARK   38  A    between atoms: _90  and  _92
REMARK   39  A    between atoms: _92  and  _93
REMARK   40  A    between atoms: _92  and  _95
REMARK   41  A    between atoms: _95  and  _96
REMARK   42  A    between atoms: _98  and  _100
REMARK   43  A    between atoms: _100  and  _101
REMARK   44  A    between atoms: _100  and  _103
REMARK   45  A    between atoms: _103  and  _104
REMARK   46  A    between atoms: _104  and  _105
REMARK   47  A    between atoms: _105  and  _106
REMARK   48  A    between atoms: _106  and  _107
REMARK   49  A    between atoms: _111  and  _113
REMARK   50  A    between atoms: _113  and  _114
REMARK   51  A    between atoms: _113  and  _116
REMARK   52  A    between atoms: _116  and  _117
REMARK   53  A    between atoms: _117  and  _118
REMARK   54  A    between atoms: _118  and  _119
REMARK   55  A    between atoms: _128  and  _130
REMARK   56  A    between atoms: _130  and  _131
REMARK   57  A    between atoms: _134  and  _136
REMARK   58  A    between atoms: _136  and  _137
REMARK   59  A    between atoms: _136  and  _139
REMARK   60  A    between atoms: _143  and  _144
REMARK   61  A    between atoms: _149  and  _151
REMARK   62  A    between atoms: _151  and  _152
REMARK   63  A    between atoms: _151  and  _154
REMARK   64  A    between atoms: _154  and  _155
REMARK   65  A    between atoms: _165  and  _167
REMARK   66  A    between atoms: _167  and  _168
REMARK   67  A    between atoms: _167  and  _170
REMARK   68  A    between atoms: _170  and  _171
REMARK   69  A    between atoms: _174  and  _176
REMARK   70  A    between atoms: _176  and  _177
REMARK   71  A    between atoms: _176  and  _179
REMARK   72  A    between atoms: _179  and  _180
REMARK   73  A    between atoms: _183  and  _185
REMARK   74  A    between atoms: _185  and  _186
REMARK   75  A    between atoms: _185  and  _188
REMARK   76  A    between atoms: _188  and  _189
REMARK   77  A    between atoms: _192  and  _194
REMARK   78  A    between atoms: _194  and  _195
REMARK   79  A    between atoms: _197  and  _199
REMARK   80  A    between atoms: _199  and  _200
REMARK   81  A    between atoms: _199  and  _202
REMARK   82  A    between atoms: _202  and  _203
REMARK   83  A    between atoms: _208  and  _210
REMARK   84  A    between atoms: _210  and  _211
REMARK   85  A    between atoms: _210  and  _213
REMARK   86  A    between atoms: _213  and  _214
REMARK   87  A    between atoms: _216  and  _218
REMARK   88  A    between atoms: _218  and  _219
REMARK   89  A    between atoms: _218  and  _221
REMARK   90  A    between atoms: _221  and  _222
REMARK   91  A    between atoms: _224  and  _226
REMARK   92  A    between atoms: _226  and  _227
REMARK   93  A    between atoms: _226  and  _229
REMARK   94  A    between atoms: _229  and  _230
REMARK   95  A    between atoms: _235  and  _236
REMARK   96  A    between atoms: _238  and  _240
REMARK   97  A    between atoms: _240  and  _241
REMARK   98  A    between atoms: _240  and  _243
REMARK   99  A    between atoms: _243  and  _244
REMARK  100  A    between atoms: _247  and  _249
REMARK  101  A    between atoms: _249  and  _250
REMARK  102  A    between atoms: _249  and  _252
REMARK  103  A    between atoms: _252  and  _253
REMARK  104  A    between atoms: _256  and  _258
REMARK  105  A    between atoms: _258  and  _259
REMARK  106  A    between atoms: _258  and  _261
REMARK  107  A    between atoms: _261  and  _262
REMARK  108  A    between atoms: _262  and  _263
REMARK  109  A    between atoms: _263  and  _264
REMARK  110  A    between atoms: _264  and  _265
REMARK  111  A    between atoms: _269  and  _271
REMARK  112  A    between atoms: _271  and  _272
REMARK  113  A    between atoms: _271  and  _274
REMARK  114  A    between atoms: _274  and  _275
REMARK  115  A    between atoms: _281  and  _283
REMARK  116  A    between atoms: _283  and  _284
REMARK  117  A    between atoms: _286  and  _288
REMARK  118  A    between atoms: _288  and  _289
REMARK  119  A    between atoms: _291  and  _293
REMARK  120  A    between atoms: _293  and  _294
REMARK  121  A    between atoms: _293  and  _296
REMARK  122  A    between atoms: _296  and  _297
REMARK  123  A    between atoms: _297  and  _298
REMARK  124  A    between atoms: _298  and  _299
REMARK  125  A    between atoms: _308  and  _310
REMARK  126  A    between atoms: _310  and  _311
REMARK  127  A    between atoms: _310  and  _313
REMARK  128  A    between atoms: _313  and  _314
REMARK  129  A    between atoms: _317  and  _319
REMARK  130  A    between atoms: _319  and  _320
REMARK  131  A    between atoms: _319  and  _322
REMARK  132  A    between atoms: _322  and  _323
REMARK  133  A    between atoms: _329  and  _331
REMARK  134  A    between atoms: _331  and  _332
REMARK  135  A    between atoms: _331  and  _334
REMARK  136  A    between atoms: _334  and  _335
REMARK  137  A    between atoms: _338  and  _340
REMARK  138  A    between atoms: _340  and  _341
REMARK  139  A    between atoms: _344  and  _346
REMARK  140  A    between atoms: _346  and  _347
REMARK  141  A    between atoms: _346  and  _349
REMARK  142  A    between atoms: _349  and  _350
REMARK  143  A    between atoms: _350  and  _351
REMARK  144  A    between atoms: _354  and  _356
REMARK  145  A    between atoms: _356  and  _357
REMARK  146  A    between atoms: _356  and  _359
REMARK  147  A    between atoms: _359  and  _360
REMARK  148  A    between atoms: _360  and  _361
REMARK  149  A    between atoms: _361  and  _362
REMARK  150  A    between atoms: _362  and  _363
REMARK  151  A    between atoms: _367  and  _369
REMARK  152  A    between atoms: _369  and  _370
REMARK  153  A    between atoms: _369  and  _372
REMARK  154  A    between atoms: _372  and  _373
REMARK  155  A    between atoms: _376  and  _378
REMARK  156  A    between atoms: _378  and  _379
REMARK  157  A    between atoms: _378  and  _381
REMARK  158  A    between atoms: _381  and  _382
REMARK  159  A    between atoms: _382  and  _383
REMARK  160  A    between atoms: _383  and  _384
REMARK  161  A    between atoms: _384  and  _385
REMARK  162  A    between atoms: _389  and  _391
REMARK  163  A    between atoms: _391  and  _392
REMARK  164  A    between atoms: _391  and  _394
REMARK  165  A    between atoms: _394  and  _395
REMARK  166  A    between atoms: _395  and  _396
REMARK  167  A    between atoms: _396  and  _397
REMARK  168  A    between atoms: _397  and  _398
REMARK  169  A    between atoms: _402  and  _404
REMARK  170  A    between atoms: _404  and  _405
REMARK  171  A    between atoms: _404  and  _407
REMARK  172  A    between atoms: _410  and  _412
REMARK  173  A    between atoms: _412  and  _413
REMARK  174  A    between atoms: _412  and  _415
REMARK  175  A    between atoms: _415  and  _416
REMARK  176  A    between atoms: _419  and  _421
REMARK  177  A    between atoms: _421  and  _422
REMARK  178  A    between atoms: _421  and  _424
REMARK  179  A    between atoms: _424  and  _425
REMARK  180  A    between atoms: _427  and  _429
REMARK  181  A    between atoms: _429  and  _430
REMARK  182  A    between atoms: _433  and  _435
REMARK  183  A    between atoms: _435  and  _436
REMARK  184  A    between atoms: _435  and  _438
REMARK  185  A    between atoms: _438  and  _439
REMARK  186  A    between atoms: _442  and  _444
REMARK  187  A    between atoms: _444  and  _445
REMARK  188  A    between atoms: _444  and  _447
REMARK  189  A    between atoms: _447  and  _448
REMARK  190  A    between atoms: _451  and  _453
REMARK  191  A    between atoms: _453  and  _454
REMARK  192  A    between atoms: _456  and  _458
REMARK  193  A    between atoms: _458  and  _459
REMARK  194  A    between atoms: _461  and  _463
REMARK  195  A    between atoms: _463  and  _464
REMARK  196  A    between atoms: _463  and  _466
REMARK  197  A    between atoms: _466  and  _467
REMARK  198  A    between atoms: _470  and  _472
REMARK  199  A    between atoms: _472  and  _473
REMARK  200  A    between atoms: _472  and  _475
REMARK  201  A    between atoms: _475  and  _476
REMARK  202  A    between atoms: _479  and  _481
REMARK  203  A    between atoms: _481  and  _482
REMARK  204  A    between atoms: _481  and  _484
REMARK  205  A    between atoms: _484  and  _485
REMARK  206  A    between atoms: _485  and  _486
REMARK  207  A    between atoms: _486  and  _487
REMARK  208  A    between atoms: _496  and  _498
REMARK  209  A    between atoms: _498  and  _499
REMARK  210  A    between atoms: _498  and  _501
REMARK  211  A    between atoms: _501  and  _502
REMARK  212  A    between atoms: _506  and  _507
REMARK  213  A    between atoms: _512  and  _514
REMARK  214  A    between atoms: _514  and  _515
REMARK  215  A    between atoms: _514  and  _517
REMARK  216  A    between atoms: _517  and  _518
REMARK  217  A    between atoms: _521  and  _523
REMARK  218  A    between atoms: _523  and  _524
REMARK  219  A    between atoms: _523  and  _526
REMARK  220  A    between atoms: _526  and  _527
REMARK  221  A    between atoms: _527  and  _528
REMARK  222  A    between atoms: _528  and  _529
REMARK  223  A    between atoms: _529  and  _530
REMARK  224  A    between atoms: _534  and  _536
REMARK  225  A    between atoms: _536  and  _537
REMARK  226  A    between atoms: _536  and  _539
REMARK  227  A    between atoms: _539  and  _540
REMARK  228  A    between atoms: _540  and  _541
REMARK  229  A    between atoms: _546  and  _548
REMARK  230  A    between atoms: _548  and  _549
REMARK  231  A    between atoms: _548  and  _551
REMARK  232  A    between atoms: _551  and  _552
REMARK  233  A    between atoms: _555  and  _557
REMARK  234  A    between atoms: _557  and  _558
REMARK  235  A    between atoms: _557  and  _560
REMARK  236  A    between atoms: _560  and  _561
REMARK  237  A    between atoms: _564  and  _566
REMARK  238  A    between atoms: _566  and  _567
REMARK  239  A    between atoms: _566  and  _569
REMARK  240  A    between atoms: _569  and  _570
REMARK  241  A    between atoms: _575  and  _577
REMARK  242  A    between atoms: _577  and  _578
REMARK  243  A    between atoms: _577  and  _580
REMARK  244  A    between atoms: _580  and  _581
REMARK  245  A    between atoms: _584  and  _586
REMARK  246  A    between atoms: _586  and  _587
REMARK  247  A    between atoms: _586  and  _589
REMARK  248  A    between atoms: _589  and  _590
REMARK  249  A    between atoms: _590  and  _591
REMARK  250  A    between atoms: _596  and  _598
REMARK  251  A    between atoms: _598  and  _599
REMARK  252  A    between atoms: _601  and  _603
REMARK  253  A    between atoms: _603  and  _604
REMARK  254  A    between atoms: _603  and  _606
REMARK  255  A    between atoms: _606  and  _607
REMARK  256  A    between atoms: _612  and  _614
REMARK  257  A    between atoms: _614  and  _615
REMARK  258  A    between atoms: _614  and  _617
REMARK  259  A    between atoms: _617  and  _618
REMARK  260  A    between atoms: _621  and  _623
REMARK  261  A    between atoms: _623  and  _624
REMARK  262  A    between atoms: _623  and  _626
REMARK  263  A    between atoms: _626  and  _627
REMARK                            x       y       z     vdW  Elec       q    Type
REMARK                         _______ _______ _______ _____ _____    ______ ____
ROOT
ATOM      1  C   GLN A   1      78.242  81.079 182.858  0.00  0.00    +0.238 C 
ATOM      2  N   ASP A   2      78.589  82.214 183.478  0.00  0.00    -0.298 N 
ATOM      3  H   ASP A   2      77.987  83.050 183.334  0.00  0.00    +0.150 HD
ATOM      4  O   GLN A   1      78.808  80.003 183.026  0.00  0.00    -0.274 OA
ENDROOT
BRANCH   1   5
ATOM      5  CA  GLN A   1      77.031  81.161 181.937  0.00  0.00    +0.145 C 
BRANCH   5   6
ATOM      6  N   GLN A   1      76.031  82.122 182.398  0.00  0.00    -0.238 NA
ATOM      7  H   GLN A   1      75.807  82.939 181.794  0.00  0.00    +0.142 HD
ENDBRANCH   5   6
BRANCH   5   8
ATOM      8  CB  GLN A   1      77.455  81.511 180.511  0.00  0.00    +0.036 C 
BRANCH   8   9
ATOM      9  CG  GLN A   1      76.304  82.128 179.747  0.00  0.00    +0.087 C 
BRANCH   9  10
ATOM     10  CD  GLN A   1      76.343  81.910 178.269  0.00  0.00    +0.219 C 
ATOM     11  OE1 GLN A   1      77.371  81.569 177.700  0.00  0.00    -0.275 OA
ATOM     12  NE2 GLN A   1      75.199  82.128 177.621  0.00  0.00    -0.329 N 
ATOM     13 HE21 GLN A   1      74.350  82.417 178.148  0.00  0.00    +0.145 HD
ATOM     14 HE22 GLN A   1      75.155  82.009 176.589  0.00  0.00    +0.145 HD
ENDBRANCH   9  10
ENDBRANCH   8   9
ENDBRANCH   5   8
ENDBRANCH   1   5
BRANCH   2  15
ATOM     15  CA  ASP A   2      79.771  82.356 184.353  0.00  0.00    +0.148 C 
BRANCH  15  16
ATOM     16  C   ASP A   2      79.559  81.815 185.769  0.00  0.00    +0.227 C 
ATOM     17  O   ASP A   2      80.506  81.327 186.402  0.00  0.00    -0.286 OA
ENDBRANCH  15  16
BRANCH  15  18
ATOM     18  CB  ASP A   2      80.180  83.842 184.457  0.00  0.00    +0.142 C 
BRANCH  18  19
ATOM     19  CG  ASP A   2      80.791  84.383 183.187  0.00  0.00    +0.367 C 
ATOM     20  OD2 ASP A   2      81.113  85.590 183.185  0.00  0.00    -0.246 OA
ATOM     21  OD1 ASP A   2      80.981  83.634 182.194  0.00  0.00    -0.246 OA
ENDBRANCH  18  19
ENDBRANCH  15  18
ENDBRANCH   2  15
TORSDOF 9
REMARK  Name = ../refined-set-2016/3d2e/3d2e_pocket.pdb
REMARK  263 active torsions:
REMARK  status: ('A' for Active; 'I' for Inactive)
REMARK    1  A    between atoms: _1  and  _3
REMARK    2  A    between atoms: _3  and  _4
REMARK    3  A    between atoms: _3  and  _6
REMARK    4  A    between atoms: _6  and  _7
REMARK    5  A    between atoms: _10  and  _12
REMARK    6  A    between atoms: _12  and  _13
REMARK    7  A    between atoms: _12  and  _15
REMARK    8  A    between atoms: _15  and  _16
REMARK    9  A    between atoms: _19  and  _21
REMARK   10  A    between atoms: _21  and  _22
REMARK   11  A    between atoms: _24  and  _26
REMARK   12  A    between atoms: _26  and  _27
REMARK   13  A    between atoms: _26  and  _29
REMARK   14  A    between atoms: _29  and  _30
REMARK   15  A    between atoms: _35  and  _37
REMARK   16  A    between atoms: _37  and  _38
REMARK   17  A    between atoms: _37  and  _40
REMARK   18  A    between atoms: _40  and  _41
REMARK   19  A    between atoms: _46  and  _48
REMARK   20  A    between atoms: _48  and  _49
REMARK   21  A    between atoms: _48  and  _51
REMARK   22  A    between atoms: _51  and  _52
REMARK   23  A    between atoms: _57  and  _59
REMARK   24  A    between atoms: _59  and  _60
REMARK   25  A    between atoms: _59  and  _62
REMARK   26  A    between atoms: _62  and  _63
REMARK   27  A    between atoms: _65  and  _67
REMARK   28  A    between atoms: _67  and  _68
REMARK   29  A    between atoms: _67  and  _70
REMARK   30  A    between atoms: _73  and  _75
REMARK   31  A    between atoms: _75  and  _76
REMARK   32  A    between atoms: _75  and  _78
REMARK   33  A    between atoms: _78  and  _79
REMARK   34  A    between atoms: _81  and  _83
REMARK   35  A    between atoms: _83  and  _84
REMARK   36  A    between atoms: _83  and  _86
REMARK   37  A    between atoms: _86  and  _87
REMARK   38  A    between atoms: _90  and  _92
REMARK   39  A    between atoms: _92  and  _93
REMARK   40  A    between atoms: _92  and  _95
REMARK   41  A    between atoms: _95  and  _96
REMARK   42  A    between atoms: _98  and  _100
REMARK   43  A    between atoms: _100  and  _101
REMARK   44  A    between atoms: _100  and  _103
REMARK   45  A    between atoms: _103  and  _104
REMARK   46  A    between atoms: _104  and  _105
REMARK   47  A    between atoms: _105  and  _106
REMARK   48  A    between atoms: _106  and  _107
REMARK   49  A    between atoms: _111  and  _113
REMARK   50  A    between atoms: _113  and  _114
REMARK   51  A    between atoms: _113  and  _116
REMARK   52  A    between atoms: _116  and  _117
REMARK   53  A    between atoms: _117  and  _118
REMARK   54  A    between atoms: _118  and  _119
REMARK   55  A    between atoms: _128  and  _130
REMARK   56  A    between atoms: _130  and  _131
REMARK   57  A    between atoms: _134  and  _136
REMARK   58  A    between atoms: _136  and  _137
REMARK   59  A    between atoms: _136  and  _139
REMARK   60  A    between atoms: _143  and  _144
REMARK   61  A    between atoms: _149  and  _151
REMARK   62  A    between atoms: _151  and  _152
REMARK   63  A    between atoms: _151  and  _154
REMARK   64  A    between atoms: _154  and  _155
REMARK   65  A    between atoms: _165  and  _167
REMARK   66  A    between atoms: _167  and  _168
REMARK   67  A    between atoms: _167  and  _170
REMARK   68  A    between atoms: _170  and  _171
REMARK   69  A    between atoms: _174  and  _176
REMARK   70  A    between atoms: _176  and  _177
REMARK   71  A    between atoms: _176  and  _179
REMARK   72  A    between atoms: _179  and  _180
REMARK   73  A    between atoms: _183  and  _185
REMARK   74  A    between atoms: _185  and  _186
REMARK   75  A    between atoms: _185  and  _188
REMARK   76  A    between atoms: _188  and  _189
REMARK   77  A    between atoms: _192  and  _194
REMARK   78  A    between atoms: _194  and  _195
REMARK   79  A    between atoms: _197  and  _199
REMARK   80  A    between atoms: _199  and  _200
REMARK   81  A    between atoms: _199  and  _202
REMARK   82  A    between atoms: _202  and  _203
REMARK   83  A    between atoms: _208  and  _210
REMARK   84  A    between atoms: _210  and  _211
REMARK   85  A    between atoms: _210  and  _213
REMARK   86  A    between atoms: _213  and  _214
REMARK   87  A    between atoms: _216  and  _218
REMARK   88  A    between atoms: _218  and  _219
REMARK   89  A    between atoms: _218  and  _221
REMARK   90  A    between atoms: _221  and  _222
REMARK   91  A    between atoms: _224  and  _226
REMARK   92  A    between atoms: _226  and  _227
REMARK   93  A    between atoms: _226  and  _229
REMARK   94  A    between atoms: _229  and  _230
REMARK   95  A    between atoms: _235  and  _236
REMARK   96  A    between atoms: _238  and  _240
REMARK   97  A    between atoms: _240  and  _241
REMARK   98  A    between atoms: _240  and  _243
REMARK   99  A    between atoms: _243  and  _244
REMARK  100  A    between atoms: _247  and  _249
REMARK  101  A    between atoms: _249  and  _250
REMARK  102  A    between atoms: _249  and  _252
REMARK  103  A    between atoms: _252  and  _253
REMARK  104  A    between atoms: _256  and  _258
REMARK  105  A    between atoms: _258  and  _259
REMARK  106  A    between atoms: _258  and  _261
REMARK  107  A    between atoms: _261  and  _262
REMARK  108  A    between atoms: _262  and  _263
REMARK  109  A    between atoms: _263  and  _264
REMARK  110  A    between atoms: _264  and  _265
REMARK  111  A    between atoms: _269  and  _271
REMARK  112  A    between atoms: _271  and  _272
REMARK  113  A    between atoms: _271  and  _274
REMARK  114  A    between atoms: _274  and  _275
REMARK  115  A    between atoms: _281  and  _283
REMARK  116  A    between atoms: _283  and  _284
REMARK  117  A    between atoms: _286  and  _288
REMARK  118  A    between atoms: _288  and  _289
REMARK  119  A    between atoms: _291  and  _293
REMARK  120  A    between atoms: _293  and  _294
REMARK  121  A    between atoms: _293  and  _296
REMARK  122  A    between atoms: _296  and  _297
REMARK  123  A    between atoms: _297  and  _298
REMARK  124  A    between atoms: _298  and  _299
REMARK  125  A    between atoms: _308  and  _310
REMARK  126  A    between atoms: _310  and  _311
REMARK  127  A    between atoms: _310  and  _313
REMARK  128  A    between atoms: _313  and  _314
REMARK  129  A    between atoms: _317  and  _319
REMARK  130  A    between atoms: _319  and  _320
REMARK  131  A    between atoms: _319  and  _322
REMARK  132  A    between atoms: _322  and  _323
REMARK  133  A    between atoms: _329  and  _331
REMARK  134  A    between atoms: _331  and  _332
REMARK  135  A    between atoms: _331  and  _334
REMARK  136  A    between atoms: _334  and  _335
REMARK  137  A    between atoms: _338  and  _340
REMARK  138  A    between atoms: _340  and  _341
REMARK  139  A    between atoms: _344  and  _346
REMARK  140  A    between atoms: _346  and  _347
REMARK  141  A    between atoms: _346  and  _349
REMARK  142  A    between atoms: _349  and  _350
REMARK  143  A    between atoms: _350  and  _351
REMARK  144  A    between atoms: _354  and  _356
REMARK  145  A    between atoms: _356  and  _357
REMARK  146  A    between atoms: _356  and  _359
REMARK  147  A    between atoms: _359  and  _360
REMARK  148  A    between atoms: _360  and  _361
REMARK  149  A    between atoms: _361  and  _362
REMARK  150  A    between atoms: _362  and  _363
REMARK  151  A    between atoms: _367  and  _369
REMARK  152  A    between atoms: _369  and  _370
REMARK  153  A    between atoms: _369  and  _372
REMARK  154  A    between atoms: _372  and  _373
REMARK  155  A    between atoms: _376  and  _378
REMARK  156  A    between atoms: _378  and  _379
REMARK  157  A    between atoms: _378  and  _381
REMARK  158  A    between atoms: _381  and  _382
REMARK  159  A    between atoms: _382  and  _383
REMARK  160  A    between atoms: _383  and  _384
REMARK  161  A    between atoms: _384  and  _385
REMARK  162  A    between atoms: _389  and  _391
REMARK  163  A    between atoms: _391  and  _392
REMARK  164  A    between atoms: _391  and  _394
REMARK  165  A    between atoms: _394  and  _395
REMARK  166  A    between atoms: _395  and  _396
REMARK  167  A    between atoms: _396  and  _397
REMARK  168  A    between atoms: _397  and  _398
REMARK  169  A    between atoms: _402  and  _404
REMARK  170  A    between atoms: _404  and  _405
REMARK  171  A    between atoms: _404  and  _407
REMARK  172  A    between atoms: _410  and  _412
REMARK  173  A    between atoms: _412  and  _413
REMARK  174  A    between atoms: _412  and  _415
REMARK  175  A    between atoms: _415  and  _416
REMARK  176  A    between atoms: _419  and  _421
REMARK  177  A    between atoms: _421  and  _422
REMARK  178  A    between atoms: _421  and  _424
REMARK  179  A    between atoms: _424  and  _425
REMARK  180  A    between atoms: _427  and  _429
REMARK  181  A    between atoms: _429  and  _430
REMARK  182  A    between atoms: _433  and  _435
REMARK  183  A    between atoms: _435  and  _436
REMARK  184  A    between atoms: _435  and  _438
REMARK  185  A    between atoms: _438  and  _439
REMARK  186  A    between atoms: _442  and  _444
REMARK  187  A    between atoms: _444  and  _445
REMARK  188  A    between atoms: _444  and  _447
REMARK  189  A    between atoms: _447  and  _448
REMARK  190  A    between atoms: _451  and  _453
REMARK  191  A    between atoms: _453  and  _454
REMARK  192  A    between atoms: _456  and  _458
REMARK  193  A    between atoms: _458  and  _459
REMARK  194  A    between atoms: _461  and  _463
REMARK  195  A    between atoms: _463  and  _464
REMARK  196  A    between atoms: _463  and  _466
REMARK  197  A    between atoms: _466  and  _467
REMARK  198  A    between atoms: _470  and  _472
REMARK  199  A    between atoms: _472  and  _473
REMARK  200  A    between atoms: _472  and  _475
REMARK  201  A    between atoms: _475  and  _476
REMARK  202  A    between atoms: _479  and  _481
REMARK  203  A    between atoms: _481  and  _482
REMARK  204  A    between atoms: _481  and  _484
REMARK  205  A    between atoms: _484  and  _485
REMARK  206  A    between atoms: _485  and  _486
REMARK  207  A    between atoms: _486  and  _487
REMARK  208  A    between atoms: _496  and  _498
REMARK  209  A    between atoms: _498  and  _499
REMARK  210  A    between atoms: _498  and  _501
REMARK  211  A    between atoms: _501  and  _502
REMARK  212  A    between atoms: _506  and  _507
REMARK  213  A    between atoms: _512  and  _514
REMARK  214  A    between atoms: _514  and  _515
REMARK  215  A    between atoms: _514  and  _517
REMARK  216  A    between atoms: _517  and  _518
REMARK  217  A    between atoms: _521  and  _523
REMARK  218  A    between atoms: _523  and  _524
REMARK  219  A    between atoms: _523  and  _526
REMARK  220  A    between atoms: _526  and  _527
REMARK  221  A    between atoms: _527  and  _528
REMARK  222  A    between atoms: _528  and  _529
REMARK  223  A    between atoms: _529  and  _530
REMARK  224  A    between atoms: _534  and  _536
REMARK  225  A    between atoms: _536  and  _537
REMARK  226  A    between atoms: _536  and  _539
REMARK  227  A    between atoms: _539  and  _540
REMARK  228  A    between atoms: _540  and  _541
REMARK  229  A    between atoms: _546  and  _548
REMARK  230  A    between atoms: _548  and  _549
REMARK  231  A    between atoms: _548  and  _551
REMARK  232  A    between atoms: _551  and  _552
REMARK  233  A    between atoms: _555  and  _557
REMARK  234  A    between atoms: _557  and  _558
REMARK  235  A    between atoms: _557  and  _560
REMARK  236  A    between atoms: _560  and  _561
REMARK  237  A    between atoms: _564  and  _566
REMARK  238  A    between atoms: _566  and  _567
REMARK  239  A    between atoms: _566  and  _569
REMARK  240  A    between atoms: _569  and  _570
REMARK  241  A    between atoms: _575  and  _577
REMARK  242  A    between atoms: _577  and  _578
REMARK  243  A    between atoms: _577  and  _580
REMARK  244  A    between atoms: _580  and  _581
REMARK  245  A    between atoms: _584  and  _586
REMARK  246  A    between atoms: _586  and  _587
REMARK  247  A    between atoms: _586  and  _589
REMARK  248  A    between atoms: _589  and  _590
REMARK  249  A    between atoms: _590  and  _591
REMARK  250  A    between atoms: _596  and  _598
REMARK  251  A    between atoms: _598  and  _599
REMARK  252  A    between atoms: _601  and  _603
REMARK  253  A    between atoms: _603  and  _604
REMARK  254  A    between atoms: _603  and  _606
REMARK  255  A    between atoms: _606  and  _607
REMARK  256  A    between atoms: _612  and  _614
REMARK  257  A    between atoms: _614  and  _615
REMARK  258  A    between atoms: _614  and  _617
REMARK  259  A    between atoms: _617  and  _618
REMARK  260  A    between atoms: _621  and  _623
REMARK  261  A    between atoms: _623  and  _624
REMARK  262  A    between atoms: _623  and  _626
REMARK  263  A    between atoms: _626  and  _627
REMARK                            x       y       z     vdW  Elec       q    Type
REMARK                         _______ _______ _______ _____ _____    ______ ____
ROOT
ATOM      1  CA  ILE A   1      78.874  75.874 188.099  0.00  0.00    +0.133 C 
ENDROOT
BRANCH   1   2
ATOM      2  N   ILE A   1      78.057  76.904 187.444  0.00  0.00    -0.239 NA
ATOM      3  H   ILE A   1      78.461  77.432 186.644  0.00  0.00    +0.142 HD
ENDBRANCH   1   2
BRANCH   1   4
ATOM      4  C   ILE A   1      79.159  76.212 189.564  0.00  0.00    +0.224 C 
ATOM      5  O   ILE A   1      78.935  75.370 190.431  0.00  0.00    -0.287 OA
ENDBRANCH   1   4
BRANCH   1   6
ATOM      6  CB  ILE A   1      80.192  75.631 187.369  0.00  0.00    +0.023 C 
ATOM      7  CG2 ILE A   1      81.135  74.822 188.257  0.00  0.00    +0.002 C 
BRANCH   6   8
ATOM      8  CG1 ILE A   1      79.930  74.977 186.002  0.00  0.00    +0.002 C 
ATOM      9  CD1 ILE A   1      81.163  74.882 185.072  0.00  0.00    +0.000 C 
ENDBRANCH   6   8
ENDBRANCH   1   6
TORSDOF 4
REMARK  Name = ../refined-set-2016/3d2e/3d2e_pocket.pdb
REMARK  263 active torsions:
REMARK  status: ('A' for Active; 'I' for Inactive)
REMARK    1  A    between atoms: _1  and  _3
REMARK    2  A    between atoms: _3  and  _4
REMARK    3  A    between atoms: _3  and  _6
REMARK    4  A    between atoms: _6  and  _7
REMARK    5  A    between atoms: _10  and  _12
REMARK    6  A    between atoms: _12  and  _13
REMARK    7  A    between atoms: _12  and  _15
REMARK    8  A    between atoms: _15  and  _16
REMARK    9  A    between atoms: _19  and  _21
REMARK   10  A    between atoms: _21  and  _22
REMARK   11  A    between atoms: _24  and  _26
REMARK   12  A    between atoms: _26  and  _27
REMARK   13  A    between atoms: _26  and  _29
REMARK   14  A    between atoms: _29  and  _30
REMARK   15  A    between atoms: _35  and  _37
REMARK   16  A    between atoms: _37  and  _38
REMARK   17  A    between atoms: _37  and  _40
REMARK   18  A    between atoms: _40  and  _41
REMARK   19  A    between atoms: _46  and  _48
REMARK   20  A    between atoms: _48  and  _49
REMARK   21  A    between atoms: _48  and  _51
REMARK   22  A    between atoms: _51  and  _52
REMARK   23  A    between atoms: _57  and  _59
REMARK   24  A    between atoms: _59  and  _60
REMARK   25  A    between atoms: _59  and  _62
REMARK   26  A    between atoms: _62  and  _63
REMARK   27  A    between atoms: _65  and  _67
REMARK   28  A    between atoms: _67  and  _68
REMARK   29  A    between atoms: _67  and  _70
REMARK   30  A    between atoms: _73  and  _75
REMARK   31  A    between atoms: _75  and  _76
REMARK   32  A    between atoms: _75  and  _78
REMARK   33  A    between atoms: _78  and  _79
REMARK   34  A    between atoms: _81  and  _83
REMARK   35  A    between atoms: _83  and  _84
REMARK   36  A    between atoms: _83  and  _86
REMARK   37  A    between atoms: _86  and  _87
REMARK   38  A    between atoms: _90  and  _92
REMARK   39  A    between atoms: _92  and  _93
REMARK   40  A    between atoms: _92  and  _95
REMARK   41  A    between atoms: _95  and  _96
REMARK   42  A    between atoms: _98  and  _100
REMARK   43  A    between atoms: _100  and  _101
REMARK   44  A    between atoms: _100  and  _103
REMARK   45  A    between atoms: _103  and  _104
REMARK   46  A    between atoms: _104  and  _105
REMARK   47  A    between atoms: _105  and  _106
REMARK   48  A    between atoms: _106  and  _107
REMARK   49  A    between atoms: _111  and  _113
REMARK   50  A    between atoms: _113  and  _114
REMARK   51  A    between atoms: _113  and  _116
REMARK   52  A    between atoms: _116  and  _117
REMARK   53  A    between atoms: _117  and  _118
REMARK   54  A    between atoms: _118  and  _119
REMARK   55  A    between atoms: _128  and  _130
REMARK   56  A    between atoms: _130  and  _131
REMARK   57  A    between atoms: _134  and  _136
REMARK   58  A    between atoms: _136  and  _137
REMARK   59  A    between atoms: _136  and  _139
REMARK   60  A    between atoms: _143  and  _144
REMARK   61  A    between atoms: _149  and  _151
REMARK   62  A    between atoms: _151  and  _152
REMARK   63  A    between atoms: _151  and  _154
REMARK   64  A    between atoms: _154  and  _155
REMARK   65  A    between atoms: _165  and  _167
REMARK   66  A    between atoms: _167  and  _168
REMARK   67  A    between atoms: _167  and  _170
REMARK   68  A    between atoms: _170  and  _171
REMARK   69  A    between atoms: _174  and  _176
REMARK   70  A    between atoms: _176  and  _177
REMARK   71  A    between atoms: _176  and  _179
REMARK   72  A    between atoms: _179  and  _180
REMARK   73  A    between atoms: _183  and  _185
REMARK   74  A    between atoms: _185  and  _186
REMARK   75  A    between atoms: _185  and  _188
REMARK   76  A    between atoms: _188  and  _189
REMARK   77  A    between atoms: _192  and  _194
REMARK   78  A    between atoms: _194  and  _195
REMARK   79  A    between atoms: _197  and  _199
REMARK   80  A    between atoms: _199  and  _200
REMARK   81  A    between atoms: _199  and  _202
REMARK   82  A    between atoms: _202  and  _203
REMARK   83  A    between atoms: _208  and  _210
REMARK   84  A    between atoms: _210  and  _211
REMARK   85  A    between atoms: _210  and  _213
REMARK   86  A    between atoms: _213  and  _214
REMARK   87  A    between atoms: _216  and  _218
REMARK   88  A    between atoms: _218  and  _219
REMARK   89  A    between atoms: _218  and  _221
REMARK   90  A    between atoms: _221  and  _222
REMARK   91  A    between atoms: _224  and  _226
REMARK   92  A    between atoms: _226  and  _227
REMARK   93  A    between atoms: _226  and  _229
REMARK   94  A    between atoms: _229  and  _230
REMARK   95  A    between atoms: _235  and  _236
REMARK   96  A    between atoms: _238  and  _240
REMARK   97  A    between atoms: _240  and  _241
REMARK   98  A    between atoms: _240  and  _243
REMARK   99  A    between atoms: _243  and  _244
REMARK  100  A    between atoms: _247  and  _249
REMARK  101  A    between atoms: _249  and  _250
REMARK  102  A    between atoms: _249  and  _252
REMARK  103  A    between atoms: _252  and  _253
REMARK  104  A    between atoms: _256  and  _258
REMARK  105  A    between atoms: _258  and  _259
REMARK  106  A    between atoms: _258  and  _261
REMARK  107  A    between atoms: _261  and  _262
REMARK  108  A    between atoms: _262  and  _263
REMARK  109  A    between atoms: _263  and  _264
REMARK  110  A    between atoms: _264  and  _265
REMARK  111  A    between atoms: _269  and  _271
REMARK  112  A    between atoms: _271  and  _272
REMARK  113  A    between atoms: _271  and  _274
REMARK  114  A    between atoms: _274  and  _275
REMARK  115  A    between atoms: _281  and  _283
REMARK  116  A    between atoms: _283  and  _284
REMARK  117  A    between atoms: _286  and  _288
REMARK  118  A    between atoms: _288  and  _289
REMARK  119  A    between atoms: _291  and  _293
REMARK  120  A    between atoms: _293  and  _294
REMARK  121  A    between atoms: _293  and  _296
REMARK  122  A    between atoms: _296  and  _297
REMARK  123  A    between atoms: _297  and  _298
REMARK  124  A    between atoms: _298  and  _299
REMARK  125  A    between atoms: _308  and  _310
REMARK  126  A    between atoms: _310  and  _311
REMARK  127  A    between atoms: _310  and  _313
REMARK  128  A    between atoms: _313  and  _314
REMARK  129  A    between atoms: _317  and  _319
REMARK  130  A    between atoms: _319  and  _320
REMARK  131  A    between atoms: _319  and  _322
REMARK  132  A    between atoms: _322  and  _323
REMARK  133  A    between atoms: _329  and  _331
REMARK  134  A    between atoms: _331  and  _332
REMARK  135  A    between atoms: _331  and  _334
REMARK  136  A    between atoms: _334  and  _335
REMARK  137  A    between atoms: _338  and  _340
REMARK  138  A    between atoms: _340  and  _341
REMARK  139  A    between atoms: _344  and  _346
REMARK  140  A    between atoms: _346  and  _347
REMARK  141  A    between atoms: _346  and  _349
REMARK  142  A    between atoms: _349  and  _350
REMARK  143  A    between atoms: _350  and  _351
REMARK  144  A    between atoms: _354  and  _356
REMARK  145  A    between atoms: _356  and  _357
REMARK  146  A    between atoms: _356  and  _359
REMARK  147  A    between atoms: _359  and  _360
REMARK  148  A    between atoms: _360  and  _361
REMARK  149  A    between atoms: _361  and  _362
REMARK  150  A    between atoms: _362  and  _363
REMARK  151  A    between atoms: _367  and  _369
REMARK  152  A    between atoms: _369  and  _370
REMARK  153  A    between atoms: _369  and  _372
REMARK  154  A    between atoms: _372  and  _373
REMARK  155  A    between atoms: _376  and  _378
REMARK  156  A    between atoms: _378  and  _379
REMARK  157  A    between atoms: _378  and  _381
REMARK  158  A    between atoms: _381  and  _382
REMARK  159  A    between atoms: _382  and  _383
REMARK  160  A    between atoms: _383  and  _384
REMARK  161  A    between atoms: _384  and  _385
REMARK  162  A    between atoms: _389  and  _391
REMARK  163  A    between atoms: _391  and  _392
REMARK  164  A    between atoms: _391  and  _394
REMARK  165  A    between atoms: _394  and  _395
REMARK  166  A    between atoms: _395  and  _396
REMARK  167  A    between atoms: _396  and  _397
REMARK  168  A    between atoms: _397  and  _398
REMARK  169  A    between atoms: _402  and  _404
REMARK  170  A    between atoms: _404  and  _405
REMARK  171  A    between atoms: _404  and  _407
REMARK  172  A    between atoms: _410  and  _412
REMARK  173  A    between atoms: _412  and  _413
REMARK  174  A    between atoms: _412  and  _415
REMARK  175  A    between atoms: _415  and  _416
REMARK  176  A    between atoms: _419  and  _421
REMARK  177  A    between atoms: _421  and  _422
REMARK  178  A    between atoms: _421  and  _424
REMARK  179  A    between atoms: _424  and  _425
REMARK  180  A    between atoms: _427  and  _429
REMARK  181  A    between atoms: _429  and  _430
REMARK  182  A    between atoms: _433  and  _435
REMARK  183  A    between atoms: _435  and  _436
REMARK  184  A    between atoms: _435  and  _438
REMARK  185  A    between atoms: _438  and  _439
REMARK  186  A    between atoms: _442  and  _444
REMARK  187  A    between atoms: _444  and  _445
REMARK  188  A    between atoms: _444  and  _447
REMARK  189  A    between atoms: _447  and  _448
REMARK  190  A    between atoms: _451  and  _453
REMARK  191  A    between atoms: _453  and  _454
REMARK  192  A    between atoms: _456  and  _458
REMARK  193  A    between atoms: _458  and  _459
REMARK  194  A    between atoms: _461  and  _463
REMARK  195  A    between atoms: _463  and  _464
REMARK  196  A    between atoms: _463  and  _466
REMARK  197  A    between atoms: _466  and  _467
REMARK  198  A    between atoms: _470  and  _472
REMARK  199  A    between atoms: _472  and  _473
REMARK  200  A    between atoms: _472  and  _475
REMARK  201  A    between atoms: _475  and  _476
REMARK  202  A    between atoms: _479  and  _481
REMARK  203  A    between atoms: _481  and  _482
REMARK  204  A    between atoms: _481  and  _484
REMARK  205  A    between atoms: _484  and  _485
REMARK  206  A    between atoms: _485  and  _486
REMARK  207  A    between atoms: _486  and  _487
REMARK  208  A    between atoms: _496  and  _498
REMARK  209  A    between atoms: _498  and  _499
REMARK  210  A    between atoms: _498  and  _501
REMARK  211  A    between atoms: _501  and  _502
REMARK  212  A    between atoms: _506  and  _507
REMARK  213  A    between atoms: _512  and  _514
REMARK  214  A    between atoms: _514  and  _515
REMARK  215  A    between atoms: _514  and  _517
REMARK  216  A    between atoms: _517  and  _518
REMARK  217  A    between atoms: _521  and  _523
REMARK  218  A    between atoms: _523  and  _524
REMARK  219  A    between atoms: _523  and  _526
REMARK  220  A    between atoms: _526  and  _527
REMARK  221  A    between atoms: _527  and  _528
REMARK  222  A    between atoms: _528  and  _529
REMARK  223  A    between atoms: _529  and  _530
REMARK  224  A    between atoms: _534  and  _536
REMARK  225  A    between atoms: _536  and  _537
REMARK  226  A    between atoms: _536  and  _539
REMARK  227  A    between atoms: _539  and  _540
REMARK  228  A    between atoms: _540  and  _541
REMARK  229  A    between atoms: _546  and  _548
REMARK  230  A    between atoms: _548  and  _549
REMARK  231  A    between atoms: _548  and  _551
REMARK  232  A    between atoms: _551  and  _552
REMARK  233  A    between atoms: _555  and  _557
REMARK  234  A    between atoms: _557  and  _558
REMARK  235  A    between atoms: _557  and  _560
REMARK  236  A    between atoms: _560  and  _561
REMARK  237  A    between atoms: _564  and  _566
REMARK  238  A    between atoms: _566  and  _567
REMARK  239  A    between atoms: _566  and  _569
REMARK  240  A    between atoms: _569  and  _570
REMARK  241  A    between atoms: _575  and  _577
REMARK  242  A    between atoms: _577  and  _578
REMARK  243  A    between atoms: _577  and  _580
REMARK  244  A    between atoms: _580  and  _581
REMARK  245  A    between atoms: _584  and  _586
REMARK  246  A    between atoms: _586  and  _587
REMARK  247  A    between atoms: _586  and  _589
REMARK  248  A    between atoms: _589  and  _590
REMARK  249  A    between atoms: _590  and  _591
REMARK  250  A    between atoms: _596  and  _598
REMARK  251  A    between atoms: _598  and  _599
REMARK  252  A    between atoms: _601  and  _603
REMARK  253  A    between atoms: _603  and  _604
REMARK  254  A    between atoms: _603  and  _606
REMARK  255  A    between atoms: _606  and  _607
REMARK  256  A    between atoms: _612  and  _614
REMARK  257  A    between atoms: _614  and  _615
REMARK  258  A    between atoms: _614  and  _617
REMARK  259  A    between atoms: _617  and  _618
REMARK  260  A    between atoms: _621  and  _623
REMARK  261  A    between atoms: _623  and  _624
REMARK  262  A    between atoms: _623  and  _626
REMARK  263  A    between atoms: _626  and  _627
REMARK                            x       y       z     vdW  Elec       q    Type
REMARK                         _______ _______ _______ _____ _____    ______ ____
ROOT
ATOM      1  CA  GLN A   3      79.391  88.755 174.808  0.00  0.00    +0.149 C 
ENDROOT
BRANCH   1   3
ATOM      2  C   ASP A   2      77.293  87.554 174.425  0.00  0.00    +0.241 C 
ATOM      3  N   GLN A   3      77.932  88.686 174.718  0.00  0.00    -0.297 N 
ATOM      4  H   GLN A   3      77.376  89.548 174.888  0.00  0.00    +0.150 HD
ATOM      5  O   ASP A   2      77.876  86.522 174.087  0.00  0.00    -0.273 OA
BRANCH   2   6
ATOM      6  CA  ASP A   2      75.770  87.574 174.519  0.00  0.00    +0.160 C 
BRANCH   6   9
ATOM      7  C   ASN A   1      75.363  88.968 176.460  0.00  0.00    +0.239 C 
ATOM      8  O   ASN A   1      76.101  88.253 177.156  0.00  0.00    -0.274 OA
ATOM      9  N   ASP A   2      75.172  88.750 175.162  0.00  0.00    -0.297 N 
ATOM     10  H   ASP A   2      74.599  89.413 174.602  0.00  0.00    +0.150 HD
BRANCH   7  11
ATOM     11  CA  ASN A   1      74.666  90.168 177.083  0.00  0.00    +0.154 C 
BRANCH  11  12
ATOM     12  N   ASN A   1      75.004  90.260 178.510  0.00  0.00    -0.238 NA
ATOM     13  H   ASN A   1      75.706  90.958 178.830  0.00  0.00    +0.142 HD
ENDBRANCH  11  12
BRANCH  11  14
ATOM     14  CB  ASN A   1      74.978  91.484 176.332  0.00  0.00    +0.111 C 
BRANCH  14  15
ATOM     15  CG  ASN A   1      76.476  91.832 176.297  0.00  0.00    +0.221 C 
ATOM     16  OD1 ASN A   1      77.366  90.957 176.413  0.00  0.00    -0.275 OA
ATOM     17  ND2 ASN A   1      76.759  93.120 176.138  0.00  0.00    -0.329 N 
ATOM     18 HD21 ASN A   1      77.750  93.435 176.106  0.00  0.00    +0.145 HD
ATOM     19 HD22 ASN A   1      75.990  93.814 176.046  0.00  0.00    +0.145 HD
ENDBRANCH  14  15
ENDBRANCH  11  14
ENDBRANCH   7  11
ENDBRANCH   6   9
BRANCH   6  20
ATOM     20  CB  ASP A   2      75.141  87.272 173.155  0.00  0.00    +0.143 C 
BRANCH  20  21
ATOM     21  CG  ASP A   2      75.213  88.423 172.205  0.00  0.00    +0.367 C 
ATOM     22  OD2 ASP A   2      76.093  89.296 172.337  0.00  0.00    -0.246 OA
ATOM     23  OD1 ASP A   2      74.366  88.446 171.293  0.00  0.00    -0.246 OA
ENDBRANCH  20  21
ENDBRANCH   6  20
ENDBRANCH   2   6
ENDBRANCH   1   3
BRANCH   1  24
ATOM     24  C   GLN A   3      79.862  88.525 176.229  0.00  0.00    +0.241 C 
ATOM     25  N   GLY A   4      78.910  88.445 177.154  0.00  0.00    -0.295 N 
ATOM     26  H   GLY A   4      77.918  88.569 176.867  0.00  0.00    +0.150 HD
ATOM     27  O   GLN A   3      81.055  88.430 176.485  0.00  0.00    -0.273 OA
BRANCH  25  28
ATOM     28  CA  GLY A   4      79.210  88.189 178.557  0.00  0.00    +0.176 C 
BRANCH  28  29
ATOM     29  C   GLY A   4      79.291  89.420 179.423  0.00  0.00    +0.243 C 
ATOM     30  O   GLY A   4      79.635  89.333 180.582  0.00  0.00    -0.273 OA
ATOM     31  N   ASN A   5      78.943  90.572 178.867  0.00  0.00    -0.298 N 
ATOM     32  H   ASN A   5      78.559  90.571 177.901  0.00  0.00    +0.150 HD
BRANCH  31  33
ATOM     33  CA  ASN A   5      79.084  91.840 179.573  0.00  0.00    +0.146 C 
BRANCH  33  34
ATOM     34  C   ASN A   5      77.793  92.242 180.241  0.00  0.00    +0.227 C 
ATOM     35  O   ASN A   5      76.720  92.097 179.651  0.00  0.00    -0.286 OA
ENDBRANCH  33  34
BRANCH  33  36
ATOM     36  CB  ASN A   5      79.553  92.929 178.612  0.00  0.00    +0.112 C 
BRANCH  36  37
ATOM     37  CG  ASN A   5      80.864  92.587 177.960  0.00  0.00    +0.222 C 
ATOM     38  OD1 ASN A   5      81.791  92.154 178.638  0.00  0.00    -0.275 OA
ATOM     39  ND2 ASN A   5      80.955  92.773 176.633  0.00  0.00    -0.329 N 
ATOM     40 HD21 ASN A   5      81.840  92.547 176.136  0.00  0.00    +0.145 HD
ATOM     41 HD22 ASN A   5      80.140  93.143 176.103  0.00  0.00    +0.145 HD
ENDBRANCH  36  37
ENDBRANCH  33  36
ENDBRANCH  31  33
ENDBRANCH  28  29
ENDBRANCH  25  28
ENDBRANCH   1  24
BRANCH   1  42
ATOM     42  CB  GLN A   3      79.903  90.093 174.261  0.00  0.00    +0.039 C 
BRANCH  42  43
ATOM     43  CG  GLN A   3      79.483  90.328 172.805  0.00  0.00    +0.087 C 
BRANCH  43  44
ATOM     44  CD  GLN A   3      79.858  89.159 171.908  0.00  0.00    +0.219 C 
ATOM     45  OE1 GLN A   3      80.957  88.614 171.995  0.00  0.00    -0.275 OA
ATOM     46  NE2 GLN A   3      78.953  88.781 171.036  0.00  0.00    -0.329 N 
ATOM     47 HE21 GLN A   3      78.035  89.268 170.995  0.00  0.00    +0.145 HD
ATOM     48 HE22 GLN A   3      79.154  87.994 170.386  0.00  0.00    +0.145 HD
ENDBRANCH  43  44
ENDBRANCH  42  43
ENDBRANCH   1  42
TORSDOF 19
REMARK  Name = ../refined-set-2016/3d2e/3d2e_pocket.pdb
REMARK  263 active torsions:
REMARK  status: ('A' for Active; 'I' for Inactive)
REMARK    1  A    between atoms: _1  and  _3
REMARK    2  A    between atoms: _3  and  _4
REMARK    3  A    between atoms: _3  and  _6
REMARK    4  A    between atoms: _6  and  _7
REMARK    5  A    between atoms: _10  and  _12
REMARK    6  A    between atoms: _12  and  _13
REMARK    7  A    between atoms: _12  and  _15
REMARK    8  A    between atoms: _15  and  _16
REMARK    9  A    between atoms: _19  and  _21
REMARK   10  A    between atoms: _21  and  _22
REMARK   11  A    between atoms: _24  and  _26
REMARK   12  A    between atoms: _26  and  _27
REMARK   13  A    between atoms: _26  and  _29
REMARK   14  A    between atoms: _29  and  _30
REMARK   15  A    between atoms: _35  and  _37
REMARK   16  A    between atoms: _37  and  _38
REMARK   17  A    between atoms: _37  and  _40
REMARK   18  A    between atoms: _40  and  _41
REMARK   19  A    between atoms: _46  and  _48
REMARK   20  A    between atoms: _48  and  _49
REMARK   21  A    between atoms: _48  and  _51
REMARK   22  A    between atoms: _51  and  _52
REMARK   23  A    between atoms: _57  and  _59
REMARK   24  A    between atoms: _59  and  _60
REMARK   25  A    between atoms: _59  and  _62
REMARK   26  A    between atoms: _62  and  _63
REMARK   27  A    between atoms: _65  and  _67
REMARK   28  A    between atoms: _67  and  _68
REMARK   29  A    between atoms: _67  and  _70
REMARK   30  A    between atoms: _73  and  _75
REMARK   31  A    between atoms: _75  and  _76
REMARK   32  A    between atoms: _75  and  _78
REMARK   33  A    between atoms: _78  and  _79
REMARK   34  A    between atoms: _81  and  _83
REMARK   35  A    between atoms: _83  and  _84
REMARK   36  A    between atoms: _83  and  _86
REMARK   37  A    between atoms: _86  and  _87
REMARK   38  A    between atoms: _90  and  _92
REMARK   39  A    between atoms: _92  and  _93
REMARK   40  A    between atoms: _92  and  _95
REMARK   41  A    between atoms: _95  and  _96
REMARK   42  A    between atoms: _98  and  _100
REMARK   43  A    between atoms: _100  and  _101
REMARK   44  A    between atoms: _100  and  _103
REMARK   45  A    between atoms: _103  and  _104
REMARK   46  A    between atoms: _104  and  _105
REMARK   47  A    between atoms: _105  and  _106
REMARK   48  A    between atoms: _106  and  _107
REMARK   49  A    between atoms: _111  and  _113
REMARK   50  A    between atoms: _113  and  _114
REMARK   51  A    between atoms: _113  and  _116
REMARK   52  A    between atoms: _116  and  _117
REMARK   53  A    between atoms: _117  and  _118
REMARK   54  A    between atoms: _118  and  _119
REMARK   55  A    between atoms: _128  and  _130
REMARK   56  A    between atoms: _130  and  _131
REMARK   57  A    between atoms: _134  and  _136
REMARK   58  A    between atoms: _136  and  _137
REMARK   59  A    between atoms: _136  and  _139
REMARK   60  A    between atoms: _143  and  _144
REMARK   61  A    between atoms: _149  and  _151
REMARK   62  A    between atoms: _151  and  _152
REMARK   63  A    between atoms: _151  and  _154
REMARK   64  A    between atoms: _154  and  _155
REMARK   65  A    between atoms: _165  and  _167
REMARK   66  A    between atoms: _167  and  _168
REMARK   67  A    between atoms: _167  and  _170
REMARK   68  A    between atoms: _170  and  _171
REMARK   69  A    between atoms: _174  and  _176
REMARK   70  A    between atoms: _176  and  _177
REMARK   71  A    between atoms: _176  and  _179
REMARK   72  A    between atoms: _179  and  _180
REMARK   73  A    between atoms: _183  and  _185
REMARK   74  A    between atoms: _185  and  _186
REMARK   75  A    between atoms: _185  and  _188
REMARK   76  A    between atoms: _188  and  _189
REMARK   77  A    between atoms: _192  and  _194
REMARK   78  A    between atoms: _194  and  _195
REMARK   79  A    between atoms: _197  and  _199
REMARK   80  A    between atoms: _199  and  _200
REMARK   81  A    between atoms: _199  and  _202
REMARK   82  A    between atoms: _202  and  _203
REMARK   83  A    between atoms: _208  and  _210
REMARK   84  A    between atoms: _210  and  _211
REMARK   85  A    between atoms: _210  and  _213
REMARK   86  A    between atoms: _213  and  _214
REMARK   87  A    between atoms: _216  and  _218
REMARK   88  A    between atoms: _218  and  _219
REMARK   89  A    between atoms: _218  and  _221
REMARK   90  A    between atoms: _221  and  _222
REMARK   91  A    between atoms: _224  and  _226
REMARK   92  A    between atoms: _226  and  _227
REMARK   93  A    between atoms: _226  and  _229
REMARK   94  A    between atoms: _229  and  _230
REMARK   95  A    between atoms: _235  and  _236
REMARK   96  A    between atoms: _238  and  _240
REMARK   97  A    between atoms: _240  and  _241
REMARK   98  A    between atoms: _240  and  _243
REMARK   99  A    between atoms: _243  and  _244
REMARK  100  A    between atoms: _247  and  _249
REMARK  101  A    between atoms: _249  and  _250
REMARK  102  A    between atoms: _249  and  _252
REMARK  103  A    between atoms: _252  and  _253
REMARK  104  A    between atoms: _256  and  _258
REMARK  105  A    between atoms: _258  and  _259
REMARK  106  A    between atoms: _258  and  _261
REMARK  107  A    between atoms: _261  and  _262
REMARK  108  A    between atoms: _262  and  _263
REMARK  109  A    between atoms: _263  and  _264
REMARK  110  A    between atoms: _264  and  _265
REMARK  111  A    between atoms: _269  and  _271
REMARK  112  A    between atoms: _271  and  _272
REMARK  113  A    between atoms: _271  and  _274
REMARK  114  A    between atoms: _274  and  _275
REMARK  115  A    between atoms: _281  and  _283
REMARK  116  A    between atoms: _283  and  _284
REMARK  117  A    between atoms: _286  and  _288
REMARK  118  A    between atoms: _288  and  _289
REMARK  119  A    between atoms: _291  and  _293
REMARK  120  A    between atoms: _293  and  _294
REMARK  121  A    between atoms: _293  and  _296
REMARK  122  A    between atoms: _296  and  _297
REMARK  123  A    between atoms: _297  and  _298
REMARK  124  A    between atoms: _298  and  _299
REMARK  125  A    between atoms: _308  and  _310
REMARK  126  A    between atoms: _310  and  _311
REMARK  127  A    between atoms: _310  and  _313
REMARK  128  A    between atoms: _313  and  _314
REMARK  129  A    between atoms: _317  and  _319
REMARK  130  A    between atoms: _319  and  _320
REMARK  131  A    between atoms: _319  and  _322
REMARK  132  A    between atoms: _322  and  _323
REMARK  133  A    between atoms: _329  and  _331
REMARK  134  A    between atoms: _331  and  _332
REMARK  135  A    between atoms: _331  and  _334
REMARK  136  A    between atoms: _334  and  _335
REMARK  137  A    between atoms: _338  and  _340
REMARK  138  A    between atoms: _340  and  _341
REMARK  139  A    between atoms: _344  and  _346
REMARK  140  A    between atoms: _346  and  _347
REMARK  141  A    between atoms: _346  and  _349
REMARK  142  A    between atoms: _349  and  _350
REMARK  143  A    between atoms: _350  and  _351
REMARK  144  A    between atoms: _354  and  _356
REMARK  145  A    between atoms: _356  and  _357
REMARK  146  A    between atoms: _356  and  _359
REMARK  147  A    between atoms: _359  and  _360
REMARK  148  A    between atoms: _360  and  _361
REMARK  149  A    between atoms: _361  and  _362
REMARK  150  A    between atoms: _362  and  _363
REMARK  151  A    between atoms: _367  and  _369
REMARK  152  A    between atoms: _369  and  _370
REMARK  153  A    between atoms: _369  and  _372
REMARK  154  A    between atoms: _372  and  _373
REMARK  155  A    between atoms: _376  and  _378
REMARK  156  A    between atoms: _378  and  _379
REMARK  157  A    between atoms: _378  and  _381
REMARK  158  A    between atoms: _381  and  _382
REMARK  159  A    between atoms: _382  and  _383
REMARK  160  A    between atoms: _383  and  _384
REMARK  161  A    between atoms: _384  and  _385
REMARK  162  A    between atoms: _389  and  _391
REMARK  163  A    between atoms: _391  and  _392
REMARK  164  A    between atoms: _391  and  _394
REMARK  165  A    between atoms: _394  and  _395
REMARK  166  A    between atoms: _395  and  _396
REMARK  167  A    between atoms: _396  and  _397
REMARK  168  A    between atoms: _397  and  _398
REMARK  169  A    between atoms: _402  and  _404
REMARK  170  A    between atoms: _404  and  _405
REMARK  171  A    between atoms: _404  and  _407
REMARK  172  A    between atoms: _410  and  _412
REMARK  173  A    between atoms: _412  and  _413
REMARK  174  A    between atoms: _412  and  _415
REMARK  175  A    between atoms: _415  and  _416
REMARK  176  A    between atoms: _419  and  _421
REMARK  177  A    between atoms: _421  and  _422
REMARK  178  A    between atoms: _421  and  _424
REMARK  179  A    between atoms: _424  and  _425
REMARK  180  A    between atoms: _427  and  _429
REMARK  181  A    between atoms: _429  and  _430
REMARK  182  A    between atoms: _433  and  _435
REMARK  183  A    between atoms: _435  and  _436
REMARK  184  A    between atoms: _435  and  _438
REMARK  185  A    between atoms: _438  and  _439
REMARK  186  A    between atoms: _442  and  _444
REMARK  187  A    between atoms: _444  and  _445
REMARK  188  A    between atoms: _444  and  _447
REMARK  189  A    between atoms: _447  and  _448
REMARK  190  A    between atoms: _451  and  _453
REMARK  191  A    between atoms: _453  and  _454
REMARK  192  A    between atoms: _456  and  _458
REMARK  193  A    between atoms: _458  and  _459
REMARK  194  A    between atoms: _461  and  _463
REMARK  195  A    between atoms: _463  and  _464
REMARK  196  A    between atoms: _463  and  _466
REMARK  197  A    between atoms: _466  and  _467
REMARK  198  A    between atoms: _470  and  _472
REMARK  199  A    between atoms: _472  and  _473
REMARK  200  A    between atoms: _472  and  _475
REMARK  201  A    between atoms: _475  and  _476
REMARK  202  A    between atoms: _479  and  _481
REMARK  203  A    between atoms: _481  and  _482
REMARK  204  A    between atoms: _481  and  _484
REMARK  205  A    between atoms: _484  and  _485
REMARK  206  A    between atoms: _485  and  _486
REMARK  207  A    between atoms: _486  and  _487
REMARK  208  A    between atoms: _496  and  _498
REMARK  209  A    between atoms: _498  and  _499
REMARK  210  A    between atoms: _498  and  _501
REMARK  211  A    between atoms: _501  and  _502
REMARK  212  A    between atoms: _506  and  _507
REMARK  213  A    between atoms: _512  and  _514
REMARK  214  A    between atoms: _514  and  _515
REMARK  215  A    between atoms: _514  and  _517
REMARK  216  A    between atoms: _517  and  _518
REMARK  217  A    between atoms: _521  and  _523
REMARK  218  A    between atoms: _523  and  _524
REMARK  219  A    between atoms: _523  and  _526
REMARK  220  A    between atoms: _526  and  _527
REMARK  221  A    between atoms: _527  and  _528
REMARK  222  A    between atoms: _528  and  _529
REMARK  223  A    between atoms: _529  and  _530
REMARK  224  A    between atoms: _534  and  _536
REMARK  225  A    between atoms: _536  and  _537
REMARK  226  A    between atoms: _536  and  _539
REMARK  227  A    between atoms: _539  and  _540
REMARK  228  A    between atoms: _540  and  _541
REMARK  229  A    between atoms: _546  and  _548
REMARK  230  A    between atoms: _548  and  _549
REMARK  231  A    between atoms: _548  and  _551
REMARK  232  A    between atoms: _551  and  _552
REMARK  233  A    between atoms: _555  and  _557
REMARK  234  A    between atoms: _557  and  _558
REMARK  235  A    between atoms: _557  and  _560
REMARK  236  A    between atoms: _560  and  _561
REMARK  237  A    between atoms: _564  and  _566
REMARK  238  A    between atoms: _566  and  _567
REMARK  239  A    between atoms: _566  and  _569
REMARK  240  A    between atoms: _569  and  _570
REMARK  241  A    between atoms: _575  and  _577
REMARK  242  A    between atoms: _577  and  _578
REMARK  243  A    between atoms: _577  and  _580
REMARK  244  A    between atoms: _580  and  _581
REMARK  245  A    between atoms: _584  and  _586
REMARK  246  A    between atoms: _586  and  _587
REMARK  247  A    between atoms: _586  and  _589
REMARK  248  A    between atoms: _589  and  _590
REMARK  249  A    between atoms: _590  and  _591
REMARK  250  A    between atoms: _596  and  _598
REMARK  251  A    between atoms: _598  and  _599
REMARK  252  A    between atoms: _601  and  _603
REMARK  253  A    between atoms: _603  and  _604
REMARK  254  A    between atoms: _603  and  _606
REMARK  255  A    between atoms: _606  and  _607
REMARK  256  A    between atoms: _612  and  _614
REMARK  257  A    between atoms: _614  and  _615
REMARK  258  A    between atoms: _614  and  _617
REMARK  259  A    between atoms: _617  and  _618
REMARK  260  A    between atoms: _621  and  _623
REMARK  261  A    between atoms: _623  and  _624
REMARK  262  A    between atoms: _623  and  _626
REMARK  263  A    between atoms: _626  and  _627
REMARK                            x       y       z     vdW  Elec       q    Type
REMARK                         _______ _______ _______ _____ _____    ______ ____
ROOT
ATOM      1  CA  ASP A   1      79.531  96.156 171.890  0.00  0.00    +0.144 C 
ENDROOT
BRANCH   1   2
ATOM      2  N   ASP A   1      78.105  96.430 171.974  0.00  0.00    -0.239 NA
ATOM      3  H   ASP A   1      77.498  95.717 172.427  0.00  0.00    +0.142 HD
ENDBRANCH   1   2
BRANCH   1   4
ATOM      4  C   ASP A   1      80.115  96.215 170.475  0.00  0.00    +0.225 C 
ATOM      5  O   ASP A   1      81.225  96.733 170.285  0.00  0.00    -0.287 OA
ENDBRANCH   1   4
BRANCH   1   6
ATOM      6  CB  ASP A   1      79.828  94.793 172.517  0.00  0.00    +0.139 C 
BRANCH   6   7
ATOM      7  CG  ASP A   1      79.729  94.805 174.041  0.00  0.00    +0.367 C 
ATOM      8  OD2 ASP A   1      80.380  95.655 174.690  0.00  0.00    -0.246 OA
ATOM      9  OD1 ASP A   1      79.029  93.932 174.600  0.00  0.00    -0.246 OA
ENDBRANCH   6   7
ENDBRANCH   1   6
TORSDOF 4
REMARK  Name = ../refined-set-2016/3d2e/3d2e_pocket.pdb
REMARK  263 active torsions:
REMARK  status: ('A' for Active; 'I' for Inactive)
REMARK    1  A    between atoms: _1  and  _3
REMARK    2  A    between atoms: _3  and  _4
REMARK    3  A    between atoms: _3  and  _6
REMARK    4  A    between atoms: _6  and  _7
REMARK    5  A    between atoms: _10  and  _12
REMARK    6  A    between atoms: _12  and  _13
REMARK    7  A    between atoms: _12  and  _15
REMARK    8  A    between atoms: _15  and  _16
REMARK    9  A    between atoms: _19  and  _21
REMARK   10  A    between atoms: _21  and  _22
REMARK   11  A    between atoms: _24  and  _26
REMARK   12  A    between atoms: _26  and  _27
REMARK   13  A    between atoms: _26  and  _29
REMARK   14  A    between atoms: _29  and  _30
REMARK   15  A    between atoms: _35  and  _37
REMARK   16  A    between atoms: _37  and  _38
REMARK   17  A    between atoms: _37  and  _40
REMARK   18  A    between atoms: _40  and  _41
REMARK   19  A    between atoms: _46  and  _48
REMARK   20  A    between atoms: _48  and  _49
REMARK   21  A    between atoms: _48  and  _51
REMARK   22  A    between atoms: _51  and  _52
REMARK   23  A    between atoms: _57  and  _59
REMARK   24  A    between atoms: _59  and  _60
REMARK   25  A    between atoms: _59  and  _62
REMARK   26  A    between atoms: _62  and  _63
REMARK   27  A    between atoms: _65  and  _67
REMARK   28  A    between atoms: _67  and  _68
REMARK   29  A    between atoms: _67  and  _70
REMARK   30  A    between atoms: _73  and  _75
REMARK   31  A    between atoms: _75  and  _76
REMARK   32  A    between atoms: _75  and  _78
REMARK   33  A    between atoms: _78  and  _79
REMARK   34  A    between atoms: _81  and  _83
REMARK   35  A    between atoms: _83  and  _84
REMARK   36  A    between atoms: _83  and  _86
REMARK   37  A    between atoms: _86  and  _87
REMARK   38  A    between atoms: _90  and  _92
REMARK   39  A    between atoms: _92  and  _93
REMARK   40  A    between atoms: _92  and  _95
REMARK   41  A    between atoms: _95  and  _96
REMARK   42  A    between atoms: _98  and  _100
REMARK   43  A    between atoms: _100  and  _101
REMARK   44  A    between atoms: _100  and  _103
REMARK   45  A    between atoms: _103  and  _104
REMARK   46  A    between atoms: _104  and  _105
REMARK   47  A    between atoms: _105  and  _106
REMARK   48  A    between atoms: _106  and  _107
REMARK   49  A    between atoms: _111  and  _113
REMARK   50  A    between atoms: _113  and  _114
REMARK   51  A    between atoms: _113  and  _116
REMARK   52  A    between atoms: _116  and  _117
REMARK   53  A    between atoms: _117  and  _118
REMARK   54  A    between atoms: _118  and  _119
REMARK   55  A    between atoms: _128  and  _130
REMARK   56  A    between atoms: _130  and  _131
REMARK   57  A    between atoms: _134  and  _136
REMARK   58  A    between atoms: _136  and  _137
REMARK   59  A    between atoms: _136  and  _139
REMARK   60  A    between atoms: _143  and  _144
REMARK   61  A    between atoms: _149  and  _151
REMARK   62  A    between atoms: _151  and  _152
REMARK   63  A    between atoms: _151  and  _154
REMARK   64  A    between atoms: _154  and  _155
REMARK   65  A    between atoms: _165  and  _167
REMARK   66  A    between atoms: _167  and  _168
REMARK   67  A    between atoms: _167  and  _170
REMARK   68  A    between atoms: _170  and  _171
REMARK   69  A    between atoms: _174  and  _176
REMARK   70  A    between atoms: _176  and  _177
REMARK   71  A    between atoms: _176  and  _179
REMARK   72  A    between atoms: _179  and  _180
REMARK   73  A    between atoms: _183  and  _185
REMARK   74  A    between atoms: _185  and  _186
REMARK   75  A    between atoms: _185  and  _188
REMARK   76  A    between atoms: _188  and  _189
REMARK   77  A    between atoms: _192  and  _194
REMARK   78  A    between atoms: _194  and  _195
REMARK   79  A    between atoms: _197  and  _199
REMARK   80  A    between atoms: _199  and  _200
REMARK   81  A    between atoms: _199  and  _202
REMARK   82  A    between atoms: _202  and  _203
REMARK   83  A    between atoms: _208  and  _210
REMARK   84  A    between atoms: _210  and  _211
REMARK   85  A    between atoms: _210  and  _213
REMARK   86  A    between atoms: _213  and  _214
REMARK   87  A    between atoms: _216  and  _218
REMARK   88  A    between atoms: _218  and  _219
REMARK   89  A    between atoms: _218  and  _221
REMARK   90  A    between atoms: _221  and  _222
REMARK   91  A    between atoms: _224  and  _226
REMARK   92  A    between atoms: _226  and  _227
REMARK   93  A    between atoms: _226  and  _229
REMARK   94  A    between atoms: _229  and  _230
REMARK   95  A    between atoms: _235  and  _236
REMARK   96  A    between atoms: _238  and  _240
REMARK   97  A    between atoms: _240  and  _241
REMARK   98  A    between atoms: _240  and  _243
REMARK   99  A    between atoms: _243  and  _244
REMARK  100  A    between atoms: _247  and  _249
REMARK  101  A    between atoms: _249  and  _250
REMARK  102  A    between atoms: _249  and  _252
REMARK  103  A    between atoms: _252  and  _253
REMARK  104  A    between atoms: _256  and  _258
REMARK  105  A    between atoms: _258  and  _259
REMARK  106  A    between atoms: _258  and  _261
REMARK  107  A    between atoms: _261  and  _262
REMARK  108  A    between atoms: _262  and  _263
REMARK  109  A    between atoms: _263  and  _264
REMARK  110  A    between atoms: _264  and  _265
REMARK  111  A    between atoms: _269  and  _271
REMARK  112  A    between atoms: _271  and  _272
REMARK  113  A    between atoms: _271  and  _274
REMARK  114  A    between atoms: _274  and  _275
REMARK  115  A    between atoms: _281  and  _283
REMARK  116  A    between atoms: _283  and  _284
REMARK  117  A    between atoms: _286  and  _288
REMARK  118  A    between atoms: _288  and  _289
REMARK  119  A    between atoms: _291  and  _293
REMARK  120  A    between atoms: _293  and  _294
REMARK  121  A    between atoms: _293  and  _296
REMARK  122  A    between atoms: _296  and  _297
REMARK  123  A    between atoms: _297  and  _298
REMARK  124  A    between atoms: _298  and  _299
REMARK  125  A    between atoms: _308  and  _310
REMARK  126  A    between atoms: _310  and  _311
REMARK  127  A    between atoms: _310  and  _313
REMARK  128  A    between atoms: _313  and  _314
REMARK  129  A    between atoms: _317  and  _319
REMARK  130  A    between atoms: _319  and  _320
REMARK  131  A    between atoms: _319  and  _322
REMARK  132  A    between atoms: _322  and  _323
REMARK  133  A    between atoms: _329  and  _331
REMARK  134  A    between atoms: _331  and  _332
REMARK  135  A    between atoms: _331  and  _334
REMARK  136  A    between atoms: _334  and  _335
REMARK  137  A    between atoms: _338  and  _340
REMARK  138  A    between atoms: _340  and  _341
REMARK  139  A    between atoms: _344  and  _346
REMARK  140  A    between atoms: _346  and  _347
REMARK  141  A    between atoms: _346  and  _349
REMARK  142  A    between atoms: _349  and  _350
REMARK  143  A    between atoms: _350  and  _351
REMARK  144  A    between atoms: _354  and  _356
REMARK  145  A    between atoms: _356  and  _357
REMARK  146  A    between atoms: _356  and  _359
REMARK  147  A    between atoms: _359  and  _360
REMARK  148  A    between atoms: _360  and  _361
REMARK  149  A    between atoms: _361  and  _362
REMARK  150  A    between atoms: _362  and  _363
REMARK  151  A    between atoms: _367  and  _369
REMARK  152  A    between atoms: _369  and  _370
REMARK  153  A    between atoms: _369  and  _372
REMARK  154  A    between atoms: _372  and  _373
REMARK  155  A    between atoms: _376  and  _378
REMARK  156  A    between atoms: _378  and  _379
REMARK  157  A    between atoms: _378  and  _381
REMARK  158  A    between atoms: _381  and  _382
REMARK  159  A    between atoms: _382  and  _383
REMARK  160  A    between atoms: _383  and  _384
REMARK  161  A    between atoms: _384  and  _385
REMARK  162  A    between atoms: _389  and  _391
REMARK  163  A    between atoms: _391  and  _392
REMARK  164  A    between atoms: _391  and  _394
REMARK  165  A    between atoms: _394  and  _395
REMARK  166  A    between atoms: _395  and  _396
REMARK  167  A    between atoms: _396  and  _397
REMARK  168  A    between atoms: _397  and  _398
REMARK  169  A    between atoms: _402  and  _404
REMARK  170  A    between atoms: _404  and  _405
REMARK  171  A    between atoms: _404  and  _407
REMARK  172  A    between atoms: _410  and  _412
REMARK  173  A    between atoms: _412  and  _413
REMARK  174  A    between atoms: _412  and  _415
REMARK  175  A    between atoms: _415  and  _416
REMARK  176  A    between atoms: _419  and  _421
REMARK  177  A    between atoms: _421  and  _422
REMARK  178  A    between atoms: _421  and  _424
REMARK  179  A    between atoms: _424  and  _425
REMARK  180  A    between atoms: _427  and  _429
REMARK  181  A    between atoms: _429  and  _430
REMARK  182  A    between atoms: _433  and  _435
REMARK  183  A    between atoms: _435  and  _436
REMARK  184  A    between atoms: _435  and  _438
REMARK  185  A    between atoms: _438  and  _439
REMARK  186  A    between atoms: _442  and  _444
REMARK  187  A    between atoms: _444  and  _445
REMARK  188  A    between atoms: _444  and  _447
REMARK  189  A    between atoms: _447  and  _448
REMARK  190  A    between atoms: _451  and  _453
REMARK  191  A    between atoms: _453  and  _454
REMARK  192  A    between atoms: _456  and  _458
REMARK  193  A    between atoms: _458  and  _459
REMARK  194  A    between atoms: _461  and  _463
REMARK  195  A    between atoms: _463  and  _464
REMARK  196  A    between atoms: _463  and  _466
REMARK  197  A    between atoms: _466  and  _467
REMARK  198  A    between atoms: _470  and  _472
REMARK  199  A    between atoms: _472  and  _473
REMARK  200  A    between atoms: _472  and  _475
REMARK  201  A    between atoms: _475  and  _476
REMARK  202  A    between atoms: _479  and  _481
REMARK  203  A    between atoms: _481  and  _482
REMARK  204  A    between atoms: _481  and  _484
REMARK  205  A    between atoms: _484  and  _485
REMARK  206  A    between atoms: _485  and  _486
REMARK  207  A    between atoms: _486  and  _487
REMARK  208  A    between atoms: _496  and  _498
REMARK  209  A    between atoms: _498  and  _499
REMARK  210  A    between atoms: _498  and  _501
REMARK  211  A    between atoms: _501  and  _502
REMARK  212  A    between atoms: _506  and  _507
REMARK  213  A    between atoms: _512  and  _514
REMARK  214  A    between atoms: _514  and  _515
REMARK  215  A    between atoms: _514  and  _517
REMARK  216  A    between atoms: _517  and  _518
REMARK  217  A    between atoms: _521  and  _523
REMARK  218  A    between atoms: _523  and  _524
REMARK  219  A    between atoms: _523  and  _526
REMARK  220  A    between atoms: _526  and  _527
REMARK  221  A    between atoms: _527  and  _528
REMARK  222  A    between atoms: _528  and  _529
REMARK  223  A    between atoms: _529  and  _530
REMARK  224  A    between atoms: _534  and  _536
REMARK  225  A    between atoms: _536  and  _537
REMARK  226  A    between atoms: _536  and  _539
REMARK  227  A    between atoms: _539  and  _540
REMARK  228  A    between atoms: _540  and  _541
REMARK  229  A    between atoms: _546  and  _548
REMARK  230  A    between atoms: _548  and  _549
REMARK  231  A    between atoms: _548  and  _551
REMARK  232  A    between atoms: _551  and  _552
REMARK  233  A    between atoms: _555  and  _557
REMARK  234  A    between atoms: _557  and  _558
REMARK  235  A    between atoms: _557  and  _560
REMARK  236  A    between atoms: _560  and  _561
REMARK  237  A    between atoms: _564  and  _566
REMARK  238  A    between atoms: _566  and  _567
REMARK  239  A    between atoms: _566  and  _569
REMARK  240  A    between atoms: _569  and  _570
REMARK  241  A    between atoms: _575  and  _577
REMARK  242  A    between atoms: _577  and  _578
REMARK  243  A    between atoms: _577  and  _580
REMARK  244  A    between atoms: _580  and  _581
REMARK  245  A    between atoms: _584  and  _586
REMARK  246  A    between atoms: _586  and  _587
REMARK  247  A    between atoms: _586  and  _589
REMARK  248  A    between atoms: _589  and  _590
REMARK  249  A    between atoms: _590  and  _591
REMARK  250  A    between atoms: _596  and  _598
REMARK  251  A    between atoms: _598  and  _599
REMARK  252  A    between atoms: _601  and  _603
REMARK  253  A    between atoms: _603  and  _604
REMARK  254  A    between atoms: _603  and  _606
REMARK  255  A    between atoms: _606  and  _607
REMARK  256  A    between atoms: _612  and  _614
REMARK  257  A    between atoms: _614  and  _615
REMARK  258  A    between atoms: _614  and  _617
REMARK  259  A    between atoms: _617  and  _618
REMARK  260  A    between atoms: _621  and  _623
REMARK  261  A    between atoms: _623  and  _624
REMARK  262  A    between atoms: _623  and  _626
REMARK  263  A    between atoms: _626  and  _627
REMARK                            x       y       z     vdW  Elec       q    Type
REMARK                         _______ _______ _______ _____ _____    ______ ____
ROOT
ATOM      1  CB  ASN A   1      84.072  96.579 168.731  0.00  0.00    +0.110 C 
ENDROOT
BRANCH   1   2
ATOM      2  CG  ASN A   1      83.983  95.768 170.002  0.00  0.00    +0.221 C 
ATOM      3  OD1 ASN A   1      84.260  96.260 171.091  0.00  0.00    -0.275 OA
ATOM      4  ND2 ASN A   1      83.575  94.518 169.871  0.00  0.00    -0.329 N 
ATOM      5 HD21 ASN A   1      83.478  93.912 170.711  0.00  0.00    +0.145 HD
ATOM      6 HD22 ASN A   1      83.350  94.140 168.928  0.00  0.00    +0.145 HD
ENDBRANCH   1   2
BRANCH   1   7
ATOM      7  CA  ASN A   1      84.251  98.077 168.985  0.00  0.00    +0.142 C 
BRANCH   7   8
ATOM      8  N   ASN A   1      82.999  98.683 169.434  0.00  0.00    -0.239 NA
ATOM      9  H   ASN A   1      82.147  98.091 169.514  0.00  0.00    +0.142 HD
ENDBRANCH   7   8
BRANCH   7  10
ATOM     10  C   ASN A   1      84.842  98.715 167.732  0.00  0.00    +0.225 C 
ATOM     11  O   ASN A   1      86.065  98.725 167.573  0.00  0.00    -0.287 OA
ENDBRANCH   7  10
ENDBRANCH   1   7
TORSDOF 4
REMARK  Name = ../refined-set-2016/3d2e/3d2e_pocket.pdb
REMARK  263 active torsions:
REMARK  status: ('A' for Active; 'I' for Inactive)
REMARK    1  A    between atoms: _1  and  _3
REMARK    2  A    between atoms: _3  and  _4
REMARK    3  A    between atoms: _3  and  _6
REMARK    4  A    between atoms: _6  and  _7
REMARK    5  A    between atoms: _10  and  _12
REMARK    6  A    between atoms: _12  and  _13
REMARK    7  A    between atoms: _12  and  _15
REMARK    8  A    between atoms: _15  and  _16
REMARK    9  A    between atoms: _19  and  _21
REMARK   10  A    between atoms: _21  and  _22
REMARK   11  A    between atoms: _24  and  _26
REMARK   12  A    between atoms: _26  and  _27
REMARK   13  A    between atoms: _26  and  _29
REMARK   14  A    between atoms: _29  and  _30
REMARK   15  A    between atoms: _35  and  _37
REMARK   16  A    between atoms: _37  and  _38
REMARK   17  A    between atoms: _37  and  _40
REMARK   18  A    between atoms: _40  and  _41
REMARK   19  A    between atoms: _46  and  _48
REMARK   20  A    between atoms: _48  and  _49
REMARK   21  A    between atoms: _48  and  _51
REMARK   22  A    between atoms: _51  and  _52
REMARK   23  A    between atoms: _57  and  _59
REMARK   24  A    between atoms: _59  and  _60
REMARK   25  A    between atoms: _59  and  _62
REMARK   26  A    between atoms: _62  and  _63
REMARK   27  A    between atoms: _65  and  _67
REMARK   28  A    between atoms: _67  and  _68
REMARK   29  A    between atoms: _67  and  _70
REMARK   30  A    between atoms: _73  and  _75
REMARK   31  A    between atoms: _75  and  _76
REMARK   32  A    between atoms: _75  and  _78
REMARK   33  A    between atoms: _78  and  _79
REMARK   34  A    between atoms: _81  and  _83
REMARK   35  A    between atoms: _83  and  _84
REMARK   36  A    between atoms: _83  and  _86
REMARK   37  A    between atoms: _86  and  _87
REMARK   38  A    between atoms: _90  and  _92
REMARK   39  A    between atoms: _92  and  _93
REMARK   40  A    between atoms: _92  and  _95
REMARK   41  A    between atoms: _95  and  _96
REMARK   42  A    between atoms: _98  and  _100
REMARK   43  A    between atoms: _100  and  _101
REMARK   44  A    between atoms: _100  and  _103
REMARK   45  A    between atoms: _103  and  _104
REMARK   46  A    between atoms: _104  and  _105
REMARK   47  A    between atoms: _105  and  _106
REMARK   48  A    between atoms: _106  and  _107
REMARK   49  A    between atoms: _111  and  _113
REMARK   50  A    between atoms: _113  and  _114
REMARK   51  A    between atoms: _113  and  _116
REMARK   52  A    between atoms: _116  and  _117
REMARK   53  A    between atoms: _117  and  _118
REMARK   54  A    between atoms: _118  and  _119
REMARK   55  A    between atoms: _128  and  _130
REMARK   56  A    between atoms: _130  and  _131
REMARK   57  A    between atoms: _134  and  _136
REMARK   58  A    between atoms: _136  and  _137
REMARK   59  A    between atoms: _136  and  _139
REMARK   60  A    between atoms: _143  and  _144
REMARK   61  A    between atoms: _149  and  _151
REMARK   62  A    between atoms: _151  and  _152
REMARK   63  A    between atoms: _151  and  _154
REMARK   64  A    between atoms: _154  and  _155
REMARK   65  A    between atoms: _165  and  _167
REMARK   66  A    between atoms: _167  and  _168
REMARK   67  A    between atoms: _167  and  _170
REMARK   68  A    between atoms: _170  and  _171
REMARK   69  A    between atoms: _174  and  _176
REMARK   70  A    between atoms: _176  and  _177
REMARK   71  A    between atoms: _176  and  _179
REMARK   72  A    between atoms: _179  and  _180
REMARK   73  A    between atoms: _183  and  _185
REMARK   74  A    between atoms: _185  and  _186
REMARK   75  A    between atoms: _185  and  _188
REMARK   76  A    between atoms: _188  and  _189
REMARK   77  A    between atoms: _192  and  _194
REMARK   78  A    between atoms: _194  and  _195
REMARK   79  A    between atoms: _197  and  _199
REMARK   80  A    between atoms: _199  and  _200
REMARK   81  A    between atoms: _199  and  _202
REMARK   82  A    between atoms: _202  and  _203
REMARK   83  A    between atoms: _208  and  _210
REMARK   84  A    between atoms: _210  and  _211
REMARK   85  A    between atoms: _210  and  _213
REMARK   86  A    between atoms: _213  and  _214
REMARK   87  A    between atoms: _216  and  _218
REMARK   88  A    between atoms: _218  and  _219
REMARK   89  A    between atoms: _218  and  _221
REMARK   90  A    between atoms: _221  and  _222
REMARK   91  A    between atoms: _224  and  _226
REMARK   92  A    between atoms: _226  and  _227
REMARK   93  A    between atoms: _226  and  _229
REMARK   94  A    between atoms: _229  and  _230
REMARK   95  A    between atoms: _235  and  _236
REMARK   96  A    between atoms: _238  and  _240
REMARK   97  A    between atoms: _240  and  _241
REMARK   98  A    between atoms: _240  and  _243
REMARK   99  A    between atoms: _243  and  _244
REMARK  100  A    between atoms: _247  and  _249
REMARK  101  A    between atoms: _249  and  _250
REMARK  102  A    between atoms: _249  and  _252
REMARK  103  A    between atoms: _252  and  _253
REMARK  104  A    between atoms: _256  and  _258
REMARK  105  A    between atoms: _258  and  _259
REMARK  106  A    between atoms: _258  and  _261
REMARK  107  A    between atoms: _261  and  _262
REMARK  108  A    between atoms: _262  and  _263
REMARK  109  A    between atoms: _263  and  _264
REMARK  110  A    between atoms: _264  and  _265
REMARK  111  A    between atoms: _269  and  _271
REMARK  112  A    between atoms: _271  and  _272
REMARK  113  A    between atoms: _271  and  _274
REMARK  114  A    between atoms: _274  and  _275
REMARK  115  A    between atoms: _281  and  _283
REMARK  116  A    between atoms: _283  and  _284
REMARK  117  A    between atoms: _286  and  _288
REMARK  118  A    between atoms: _288  and  _289
REMARK  119  A    between atoms: _291  and  _293
REMARK  120  A    between atoms: _293  and  _294
REMARK  121  A    between atoms: _293  and  _296
REMARK  122  A    between atoms: _296  and  _297
REMARK  123  A    between atoms: _297  and  _298
REMARK  124  A    between atoms: _298  and  _299
REMARK  125  A    between atoms: _308  and  _310
REMARK  126  A    between atoms: _310  and  _311
REMARK  127  A    between atoms: _310  and  _313
REMARK  128  A    between atoms: _313  and  _314
REMARK  129  A    between atoms: _317  and  _319
REMARK  130  A    between atoms: _319  and  _320
REMARK  131  A    between atoms: _319  and  _322
REMARK  132  A    between atoms: _322  and  _323
REMARK  133  A    between atoms: _329  and  _331
REMARK  134  A    between atoms: _331  and  _332
REMARK  135  A    between atoms: _331  and  _334
REMARK  136  A    between atoms: _334  and  _335
REMARK  137  A    between atoms: _338  and  _340
REMARK  138  A    between atoms: _340  and  _341
REMARK  139  A    between atoms: _344  and  _346
REMARK  140  A    between atoms: _346  and  _347
REMARK  141  A    between atoms: _346  and  _349
REMARK  142  A    between atoms: _349  and  _350
REMARK  143  A    between atoms: _350  and  _351
REMARK  144  A    between atoms: _354  and  _356
REMARK  145  A    between atoms: _356  and  _357
REMARK  146  A    between atoms: _356  and  _359
REMARK  147  A    between atoms: _359  and  _360
REMARK  148  A    between atoms: _360  and  _361
REMARK  149  A    between atoms: _361  and  _362
REMARK  150  A    between atoms: _362  and  _363
REMARK  151  A    between atoms: _367  and  _369
REMARK  152  A    between atoms: _369  and  _370
REMARK  153  A    between atoms: _369  and  _372
REMARK  154  A    between atoms: _372  and  _373
REMARK  155  A    between atoms: _376  and  _378
REMARK  156  A    between atoms: _378  and  _379
REMARK  157  A    between atoms: _378  and  _381
REMARK  158  A    between atoms: _381  and  _382
REMARK  159  A    between atoms: _382  and  _383
REMARK  160  A    between atoms: _383  and  _384
REMARK  161  A    between atoms: _384  and  _385
REMARK  162  A    between atoms: _389  and  _391
REMARK  163  A    between atoms: _391  and  _392
REMARK  164  A    between atoms: _391  and  _394
REMARK  165  A    between atoms: _394  and  _395
REMARK  166  A    between atoms: _395  and  _396
REMARK  167  A    between atoms: _396  and  _397
REMARK  168  A    between atoms: _397  and  _398
REMARK  169  A    between atoms: _402  and  _404
REMARK  170  A    between atoms: _404  and  _405
REMARK  171  A    between atoms: _404  and  _407
REMARK  172  A    between atoms: _410  and  _412
REMARK  173  A    between atoms: _412  and  _413
REMARK  174  A    between atoms: _412  and  _415
REMARK  175  A    between atoms: _415  and  _416
REMARK  176  A    between atoms: _419  and  _421
REMARK  177  A    between atoms: _421  and  _422
REMARK  178  A    between atoms: _421  and  _424
REMARK  179  A    between atoms: _424  and  _425
REMARK  180  A    between atoms: _427  and  _429
REMARK  181  A    between atoms: _429  and  _430
REMARK  182  A    between atoms: _433  and  _435
REMARK  183  A    between atoms: _435  and  _436
REMARK  184  A    between atoms: _435  and  _438
REMARK  185  A    between atoms: _438  and  _439
REMARK  186  A    between atoms: _442  and  _444
REMARK  187  A    between atoms: _444  and  _445
REMARK  188  A    between atoms: _444  and  _447
REMARK  189  A    between atoms: _447  and  _448
REMARK  190  A    between atoms: _451  and  _453
REMARK  191  A    between atoms: _453  and  _454
REMARK  192  A    between atoms: _456  and  _458
REMARK  193  A    between atoms: _458  and  _459
REMARK  194  A    between atoms: _461  and  _463
REMARK  195  A    between atoms: _463  and  _464
REMARK  196  A    between atoms: _463  and  _466
REMARK  197  A    between atoms: _466  and  _467
REMARK  198  A    between atoms: _470  and  _472
REMARK  199  A    between atoms: _472  and  _473
REMARK  200  A    between atoms: _472  and  _475
REMARK  201  A    between atoms: _475  and  _476
REMARK  202  A    between atoms: _479  and  _481
REMARK  203  A    between atoms: _481  and  _482
REMARK  204  A    between atoms: _481  and  _484
REMARK  205  A    between atoms: _484  and  _485
REMARK  206  A    between atoms: _485  and  _486
REMARK  207  A    between atoms: _486  and  _487
REMARK  208  A    between atoms: _496  and  _498
REMARK  209  A    between atoms: _498  and  _499
REMARK  210  A    between atoms: _498  and  _501
REMARK  211  A    between atoms: _501  and  _502
REMARK  212  A    between atoms: _506  and  _507
REMARK  213  A    between atoms: _512  and  _514
REMARK  214  A    between atoms: _514  and  _515
REMARK  215  A    between atoms: _514  and  _517
REMARK  216  A    between atoms: _517  and  _518
REMARK  217  A    between atoms: _521  and  _523
REMARK  218  A    between atoms: _523  and  _524
REMARK  219  A    between atoms: _523  and  _526
REMARK  220  A    between atoms: _526  and  _527
REMARK  221  A    between atoms: _527  and  _528
REMARK  222  A    between atoms: _528  and  _529
REMARK  223  A    between atoms: _529  and  _530
REMARK  224  A    between atoms: _534  and  _536
REMARK  225  A    between atoms: _536  and  _537
REMARK  226  A    between atoms: _536  and  _539
REMARK  227  A    between atoms: _539  and  _540
REMARK  228  A    between atoms: _540  and  _541
REMARK  229  A    between atoms: _546  and  _548
REMARK  230  A    between atoms: _548  and  _549
REMARK  231  A    between atoms: _548  and  _551
REMARK  232  A    between atoms: _551  and  _552
REMARK  233  A    between atoms: _555  and  _557
REMARK  234  A    between atoms: _557  and  _558
REMARK  235  A    between atoms: _557  and  _560
REMARK  236  A    between atoms: _560  and  _561
REMARK  237  A    between atoms: _564  and  _566
REMARK  238  A    between atoms: _566  and  _567
REMARK  239  A    between atoms: _566  and  _569
REMARK  240  A    between atoms: _569  and  _570
REMARK  241  A    between atoms: _575  and  _577
REMARK  242  A    between atoms: _577  and  _578
REMARK  243  A    between atoms: _577  and  _580
REMARK  244  A    between atoms: _580  and  _581
REMARK  245  A    between atoms: _584  and  _586
REMARK  246  A    between atoms: _586  and  _587
REMARK  247  A    between atoms: _586  and  _589
REMARK  248  A    between atoms: _589  and  _590
REMARK  249  A    between atoms: _590  and  _591
REMARK  250  A    between atoms: _596  and  _598
REMARK  251  A    between atoms: _598  and  _599
REMARK  252  A    between atoms: _601  and  _603
REMARK  253  A    between atoms: _603  and  _604
REMARK  254  A    between atoms: _603  and  _606
REMARK  255  A    between atoms: _606  and  _607
REMARK  256  A    between atoms: _612  and  _614
REMARK  257  A    between atoms: _614  and  _615
REMARK  258  A    between atoms: _614  and  _617
REMARK  259  A    between atoms: _617  and  _618
REMARK  260  A    between atoms: _621  and  _623
REMARK  261  A    between atoms: _623  and  _624
REMARK  262  A    between atoms: _623  and  _626
REMARK  263  A    between atoms: _626  and  _627
REMARK                            x       y       z     vdW  Elec       q    Type
REMARK                         _______ _______ _______ _____ _____    ______ ____
ROOT
ATOM      1 MG   UNL     1      85.122  76.401 183.439  0.00  0.00    +0.000 Mg
ATOM      2  O   UNL     1      85.848  75.803 185.268  0.00  0.00    +0.000 OA
ATOM      3  O   UNL     1      84.158  74.692 183.287  0.00  0.00    +0.000 OA
ENDROOT
TORSDOF 0
REMARK  Name = ../refined-set-2016/3d2e/3d2e_pocket.pdb
REMARK  263 active torsions:
REMARK  status: ('A' for Active; 'I' for Inactive)
REMARK    1  A    between atoms: _1  and  _3
REMARK    2  A    between atoms: _3  and  _4
REMARK    3  A    between atoms: _3  and  _6
REMARK    4  A    between atoms: _6  and  _7
REMARK    5  A    between atoms: _10  and  _12
REMARK    6  A    between atoms: _12  and  _13
REMARK    7  A    between atoms: _12  and  _15
REMARK    8  A    between atoms: _15  and  _16
REMARK    9  A    between atoms: _19  and  _21
REMARK   10  A    between atoms: _21  and  _22
REMARK   11  A    between atoms: _24  and  _26
REMARK   12  A    between atoms: _26  and  _27
REMARK   13  A    between atoms: _26  and  _29
REMARK   14  A    between atoms: _29  and  _30
REMARK   15  A    between atoms: _35  and  _37
REMARK   16  A    between atoms: _37  and  _38
REMARK   17  A    between atoms: _37  and  _40
REMARK   18  A    between atoms: _40  and  _41
REMARK   19  A    between atoms: _46  and  _48
REMARK   20  A    between atoms: _48  and  _49
REMARK   21  A    between atoms: _48  and  _51
REMARK   22  A    between atoms: _51  and  _52
REMARK   23  A    between atoms: _57  and  _59
REMARK   24  A    between atoms: _59  and  _60
REMARK   25  A    between atoms: _59  and  _62
REMARK   26  A    between atoms: _62  and  _63
REMARK   27  A    between atoms: _65  and  _67
REMARK   28  A    between atoms: _67  and  _68
REMARK   29  A    between atoms: _67  and  _70
REMARK   30  A    between atoms: _73  and  _75
REMARK   31  A    between atoms: _75  and  _76
REMARK   32  A    between atoms: _75  and  _78
REMARK   33  A    between atoms: _78  and  _79
REMARK   34  A    between atoms: _81  and  _83
REMARK   35  A    between atoms: _83  and  _84
REMARK   36  A    between atoms: _83  and  _86
REMARK   37  A    between atoms: _86  and  _87
REMARK   38  A    between atoms: _90  and  _92
REMARK   39  A    between atoms: _92  and  _93
REMARK   40  A    between atoms: _92  and  _95
REMARK   41  A    between atoms: _95  and  _96
REMARK   42  A    between atoms: _98  and  _100
REMARK   43  A    between atoms: _100  and  _101
REMARK   44  A    between atoms: _100  and  _103
REMARK   45  A    between atoms: _103  and  _104
REMARK   46  A    between atoms: _104  and  _105
REMARK   47  A    between atoms: _105  and  _106
REMARK   48  A    between atoms: _106  and  _107
REMARK   49  A    between atoms: _111  and  _113
REMARK   50  A    between atoms: _113  and  _114
REMARK   51  A    between atoms: _113  and  _116
REMARK   52  A    between atoms: _116  and  _117
REMARK   53  A    between atoms: _117  and  _118
REMARK   54  A    between atoms: _118  and  _119
REMARK   55  A    between atoms: _128  and  _130
REMARK   56  A    between atoms: _130  and  _131
REMARK   57  A    between atoms: _134  and  _136
REMARK   58  A    between atoms: _136  and  _137
REMARK   59  A    between atoms: _136  and  _139
REMARK   60  A    between atoms: _143  and  _144
REMARK   61  A    between atoms: _149  and  _151
REMARK   62  A    between atoms: _151  and  _152
REMARK   63  A    between atoms: _151  and  _154
REMARK   64  A    between atoms: _154  and  _155
REMARK   65  A    between atoms: _165  and  _167
REMARK   66  A    between atoms: _167  and  _168
REMARK   67  A    between atoms: _167  and  _170
REMARK   68  A    between atoms: _170  and  _171
REMARK   69  A    between atoms: _174  and  _176
REMARK   70  A    between atoms: _176  and  _177
REMARK   71  A    between atoms: _176  and  _179
REMARK   72  A    between atoms: _179  and  _180
REMARK   73  A    between atoms: _183  and  _185
REMARK   74  A    between atoms: _185  and  _186
REMARK   75  A    between atoms: _185  and  _188
REMARK   76  A    between atoms: _188  and  _189
REMARK   77  A    between atoms: _192  and  _194
REMARK   78  A    between atoms: _194  and  _195
REMARK   79  A    between atoms: _197  and  _199
REMARK   80  A    between atoms: _199  and  _200
REMARK   81  A    between atoms: _199  and  _202
REMARK   82  A    between atoms: _202  and  _203
REMARK   83  A    between atoms: _208  and  _210
REMARK   84  A    between atoms: _210  and  _211
REMARK   85  A    between atoms: _210  and  _213
REMARK   86  A    between atoms: _213  and  _214
REMARK   87  A    between atoms: _216  and  _218
REMARK   88  A    between atoms: _218  and  _219
REMARK   89  A    between atoms: _218  and  _221
REMARK   90  A    between atoms: _221  and  _222
REMARK   91  A    between atoms: _224  and  _226
REMARK   92  A    between atoms: _226  and  _227
REMARK   93  A    between atoms: _226  and  _229
REMARK   94  A    between atoms: _229  and  _230
REMARK   95  A    between atoms: _235  and  _236
REMARK   96  A    between atoms: _238  and  _240
REMARK   97  A    between atoms: _240  and  _241
REMARK   98  A    between atoms: _240  and  _243
REMARK   99  A    between atoms: _243  and  _244
REMARK  100  A    between atoms: _247  and  _249
REMARK  101  A    between atoms: _249  and  _250
REMARK  102  A    between atoms: _249  and  _252
REMARK  103  A    between atoms: _252  and  _253
REMARK  104  A    between atoms: _256  and  _258
REMARK  105  A    between atoms: _258  and  _259
REMARK  106  A    between atoms: _258  and  _261
REMARK  107  A    between atoms: _261  and  _262
REMARK  108  A    between atoms: _262  and  _263
REMARK  109  A    between atoms: _263  and  _264
REMARK  110  A    between atoms: _264  and  _265
REMARK  111  A    between atoms: _269  and  _271
REMARK  112  A    between atoms: _271  and  _272
REMARK  113  A    between atoms: _271  and  _274
REMARK  114  A    between atoms: _274  and  _275
REMARK  115  A    between atoms: _281  and  _283
REMARK  116  A    between atoms: _283  and  _284
REMARK  117  A    between atoms: _286  and  _288
REMARK  118  A    between atoms: _288  and  _289
REMARK  119  A    between atoms: _291  and  _293
REMARK  120  A    between atoms: _293  and  _294
REMARK  121  A    between atoms: _293  and  _296
REMARK  122  A    between atoms: _296  and  _297
REMARK  123  A    between atoms: _297  and  _298
REMARK  124  A    between atoms: _298  and  _299
REMARK  125  A    between atoms: _308  and  _310
REMARK  126  A    between atoms: _310  and  _311
REMARK  127  A    between atoms: _310  and  _313
REMARK  128  A    between atoms: _313  and  _314
REMARK  129  A    between atoms: _317  and  _319
REMARK  130  A    between atoms: _319  and  _320
REMARK  131  A    between atoms: _319  and  _322
REMARK  132  A    between atoms: _322  and  _323
REMARK  133  A    between atoms: _329  and  _331
REMARK  134  A    between atoms: _331  and  _332
REMARK  135  A    between atoms: _331  and  _334
REMARK  136  A    between atoms: _334  and  _335
REMARK  137  A    between atoms: _338  and  _340
REMARK  138  A    between atoms: _340  and  _341
REMARK  139  A    between atoms: _344  and  _346
REMARK  140  A    between atoms: _346  and  _347
REMARK  141  A    between atoms: _346  and  _349
REMARK  142  A    between atoms: _349  and  _350
REMARK  143  A    between atoms: _350  and  _351
REMARK  144  A    between atoms: _354  and  _356
REMARK  145  A    between atoms: _356  and  _357
REMARK  146  A    between atoms: _356  and  _359
REMARK  147  A    between atoms: _359  and  _360
REMARK  148  A    between atoms: _360  and  _361
REMARK  149  A    between atoms: _361  and  _362
REMARK  150  A    between atoms: _362  and  _363
REMARK  151  A    between atoms: _367  and  _369
REMARK  152  A    between atoms: _369  and  _370
REMARK  153  A    between atoms: _369  and  _372
REMARK  154  A    between atoms: _372  and  _373
REMARK  155  A    between atoms: _376  and  _378
REMARK  156  A    between atoms: _378  and  _379
REMARK  157  A    between atoms: _378  and  _381
REMARK  158  A    between atoms: _381  and  _382
REMARK  159  A    between atoms: _382  and  _383
REMARK  160  A    between atoms: _383  and  _384
REMARK  161  A    between atoms: _384  and  _385
REMARK  162  A    between atoms: _389  and  _391
REMARK  163  A    between atoms: _391  and  _392
REMARK  164  A    between atoms: _391  and  _394
REMARK  165  A    between atoms: _394  and  _395
REMARK  166  A    between atoms: _395  and  _396
REMARK  167  A    between atoms: _396  and  _397
REMARK  168  A    between atoms: _397  and  _398
REMARK  169  A    between atoms: _402  and  _404
REMARK  170  A    between atoms: _404  and  _405
REMARK  171  A    between atoms: _404  and  _407
REMARK  172  A    between atoms: _410  and  _412
REMARK  173  A    between atoms: _412  and  _413
REMARK  174  A    between atoms: _412  and  _415
REMARK  175  A    between atoms: _415  and  _416
REMARK  176  A    between atoms: _419  and  _421
REMARK  177  A    between atoms: _421  and  _422
REMARK  178  A    between atoms: _421  and  _424
REMARK  179  A    between atoms: _424  and  _425
REMARK  180  A    between atoms: _427  and  _429
REMARK  181  A    between atoms: _429  and  _430
REMARK  182  A    between atoms: _433  and  _435
REMARK  183  A    between atoms: _435  and  _436
REMARK  184  A    between atoms: _435  and  _438
REMARK  185  A    between atoms: _438  and  _439
REMARK  186  A    between atoms: _442  and  _444
REMARK  187  A    between atoms: _444  and  _445
REMARK  188  A    between atoms: _444  and  _447
REMARK  189  A    between atoms: _447  and  _448
REMARK  190  A    between atoms: _451  and  _453
REMARK  191  A    between atoms: _453  and  _454
REMARK  192  A    between atoms: _456  and  _458
REMARK  193  A    between atoms: _458  and  _459
REMARK  194  A    between atoms: _461  and  _463
REMARK  195  A    between atoms: _463  and  _464
REMARK  196  A    between atoms: _463  and  _466
REMARK  197  A    between atoms: _466  and  _467
REMARK  198  A    between atoms: _470  and  _472
REMARK  199  A    between atoms: _472  and  _473
REMARK  200  A    between atoms: _472  and  _475
REMARK  201  A    between atoms: _475  and  _476
REMARK  202  A    between atoms: _479  and  _481
REMARK  203  A    between atoms: _481  and  _482
REMARK  204  A    between atoms: _481  and  _484
REMARK  205  A    between atoms: _484  and  _485
REMARK  206  A    between atoms: _485  and  _486
REMARK  207  A    between atoms: _486  and  _487
REMARK  208  A    between atoms: _496  and  _498
REMARK  209  A    between atoms: _498  and  _499
REMARK  210  A    between atoms: _498  and  _501
REMARK  211  A    between atoms: _501  and  _502
REMARK  212  A    between atoms: _506  and  _507
REMARK  213  A    between atoms: _512  and  _514
REMARK  214  A    between atoms: _514  and  _515
REMARK  215  A    between atoms: _514  and  _517
REMARK  216  A    between atoms: _517  and  _518
REMARK  217  A    between atoms: _521  and  _523
REMARK  218  A    between atoms: _523  and  _524
REMARK  219  A    between atoms: _523  and  _526
REMARK  220  A    between atoms: _526  and  _527
REMARK  221  A    between atoms: _527  and  _528
REMARK  222  A    between atoms: _528  and  _529
REMARK  223  A    between atoms: _529  and  _530
REMARK  224  A    between atoms: _534  and  _536
REMARK  225  A    between atoms: _536  and  _537
REMARK  226  A    between atoms: _536  and  _539
REMARK  227  A    between atoms: _539  and  _540
REMARK  228  A    between atoms: _540  and  _541
REMARK  229  A    between atoms: _546  and  _548
REMARK  230  A    between atoms: _548  and  _549
REMARK  231  A    between atoms: _548  and  _551
REMARK  232  A    between atoms: _551  and  _552
REMARK  233  A    between atoms: _555  and  _557
REMARK  234  A    between atoms: _557  and  _558
REMARK  235  A    between atoms: _557  and  _560
REMARK  236  A    between atoms: _560  and  _561
REMARK  237  A    between atoms: _564  and  _566
REMARK  238  A    between atoms: _566  and  _567
REMARK  239  A    between atoms: _566  and  _569
REMARK  240  A    between atoms: _569  and  _570
REMARK  241  A    between atoms: _575  and  _577
REMARK  242  A    between atoms: _577  and  _578
REMARK  243  A    between atoms: _577  and  _580
REMARK  244  A    between atoms: _580  and  _581
REMARK  245  A    between atoms: _584  and  _586
REMARK  246  A    between atoms: _586  and  _587
REMARK  247  A    between atoms: _586  and  _589
REMARK  248  A    between atoms: _589  and  _590
REMARK  249  A    between atoms: _590  and  _591
REMARK  250  A    between atoms: _596  and  _598
REMARK  251  A    between atoms: _598  and  _599
REMARK  252  A    between atoms: _601  and  _603
REMARK  253  A    between atoms: _603  and  _604
REMARK  254  A    between atoms: _603  and  _606
REMARK  255  A    between atoms: _606  and  _607
REMARK  256  A    between atoms: _612  and  _614
REMARK  257  A    between atoms: _614  and  _615
REMARK  258  A    between atoms: _614  and  _617
REMARK  259  A    between atoms: _617  and  _618
REMARK  260  A    between atoms: _621  and  _623
REMARK  261  A    between atoms: _623  and  _624
REMARK  262  A    between atoms: _623  and  _626
REMARK  263  A    between atoms: _626  and  _627
REMARK                            x       y       z     vdW  Elec       q    Type
REMARK                         _______ _______ _______ _____ _____    ______ ____
ROOT
ATOM      1  O   HOH     1      83.613  77.476 184.606  0.00  0.00    +0.000 OA
ENDROOT
TORSDOF 0
REMARK  Name = ../refined-set-2016/3d2e/3d2e_pocket.pdb
REMARK  263 active torsions:
REMARK  status: ('A' for Active; 'I' for Inactive)
REMARK    1  A    between atoms: _1  and  _3
REMARK    2  A    between atoms: _3  and  _4
REMARK    3  A    between atoms: _3  and  _6
REMARK    4  A    between atoms: _6  and  _7
REMARK    5  A    between atoms: _10  and  _12
REMARK    6  A    between atoms: _12  and  _13
REMARK    7  A    between atoms: _12  and  _15
REMARK    8  A    between atoms: _15  and  _16
REMARK    9  A    between atoms: _19  and  _21
REMARK   10  A    between atoms: _21  and  _22
REMARK   11  A    between atoms: _24  and  _26
REMARK   12  A    between atoms: _26  and  _27
REMARK   13  A    between atoms: _26  and  _29
REMARK   14  A    between atoms: _29  and  _30
REMARK   15  A    between atoms: _35  and  _37
REMARK   16  A    between atoms: _37  and  _38
REMARK   17  A    between atoms: _37  and  _40
REMARK   18  A    between atoms: _40  and  _41
REMARK   19  A    between atoms: _46  and  _48
REMARK   20  A    between atoms: _48  and  _49
REMARK   21  A    between atoms: _48  and  _51
REMARK   22  A    between atoms: _51  and  _52
REMARK   23  A    between atoms: _57  and  _59
REMARK   24  A    between atoms: _59  and  _60
REMARK   25  A    between atoms: _59  and  _62
REMARK   26  A    between atoms: _62  and  _63
REMARK   27  A    between atoms: _65  and  _67
REMARK   28  A    between atoms: _67  and  _68
REMARK   29  A    between atoms: _67  and  _70
REMARK   30  A    between atoms: _73  and  _75
REMARK   31  A    between atoms: _75  and  _76
REMARK   32  A    between atoms: _75  and  _78
REMARK   33  A    between atoms: _78  and  _79
REMARK   34  A    between atoms: _81  and  _83
REMARK   35  A    between atoms: _83  and  _84
REMARK   36  A    between atoms: _83  and  _86
REMARK   37  A    between atoms: _86  and  _87
REMARK   38  A    between atoms: _90  and  _92
REMARK   39  A    between atoms: _92  and  _93
REMARK   40  A    between atoms: _92  and  _95
REMARK   41  A    between atoms: _95  and  _96
REMARK   42  A    between atoms: _98  and  _100
REMARK   43  A    between atoms: _100  and  _101
REMARK   44  A    between atoms: _100  and  _103
REMARK   45  A    between atoms: _103  and  _104
REMARK   46  A    between atoms: _104  and  _105
REMARK   47  A    between atoms: _105  and  _106
REMARK   48  A    between atoms: _106  and  _107
REMARK   49  A    between atoms: _111  and  _113
REMARK   50  A    between atoms: _113  and  _114
REMARK   51  A    between atoms: _113  and  _116
REMARK   52  A    between atoms: _116  and  _117
REMARK   53  A    between atoms: _117  and  _118
REMARK   54  A    between atoms: _118  and  _119
REMARK   55  A    between atoms: _128  and  _130
REMARK   56  A    between atoms: _130  and  _131
REMARK   57  A    between atoms: _134  and  _136
REMARK   58  A    between atoms: _136  and  _137
REMARK   59  A    between atoms: _136  and  _139
REMARK   60  A    between atoms: _143  and  _144
REMARK   61  A    between atoms: _149  and  _151
REMARK   62  A    between atoms: _151  and  _152
REMARK   63  A    between atoms: _151  and  _154
REMARK   64  A    between atoms: _154  and  _155
REMARK   65  A    between atoms: _165  and  _167
REMARK   66  A    between atoms: _167  and  _168
REMARK   67  A    between atoms: _167  and  _170
REMARK   68  A    between atoms: _170  and  _171
REMARK   69  A    between atoms: _174  and  _176
REMARK   70  A    between atoms: _176  and  _177
REMARK   71  A    between atoms: _176  and  _179
REMARK   72  A    between atoms: _179  and  _180
REMARK   73  A    between atoms: _183  and  _185
REMARK   74  A    between atoms: _185  and  _186
REMARK   75  A    between atoms: _185  and  _188
REMARK   76  A    between atoms: _188  and  _189
REMARK   77  A    between atoms: _192  and  _194
REMARK   78  A    between atoms: _194  and  _195
REMARK   79  A    between atoms: _197  and  _199
REMARK   80  A    between atoms: _199  and  _200
REMARK   81  A    between atoms: _199  and  _202
REMARK   82  A    between atoms: _202  and  _203
REMARK   83  A    between atoms: _208  and  _210
REMARK   84  A    between atoms: _210  and  _211
REMARK   85  A    between atoms: _210  and  _213
REMARK   86  A    between atoms: _213  and  _214
REMARK   87  A    between atoms: _216  and  _218
REMARK   88  A    between atoms: _218  and  _219
REMARK   89  A    between atoms: _218  and  _221
REMARK   90  A    between atoms: _221  and  _222
REMARK   91  A    between atoms: _224  and  _226
REMARK   92  A    between atoms: _226  and  _227
REMARK   93  A    between atoms: _226  and  _229
REMARK   94  A    between atoms: _229  and  _230
REMARK   95  A    between atoms: _235  and  _236
REMARK   96  A    between atoms: _238  and  _240
REMARK   97  A    between atoms: _240  and  _241
REMARK   98  A    between atoms: _240  and  _243
REMARK   99  A    between atoms: _243  and  _244
REMARK  100  A    between atoms: _247  and  _249
REMARK  101  A    between atoms: _249  and  _250
REMARK  102  A    between atoms: _249  and  _252
REMARK  103  A    between atoms: _252  and  _253
REMARK  104  A    between atoms: _256  and  _258
REMARK  105  A    between atoms: _258  and  _259
REMARK  106  A    between atoms: _258  and  _261
REMARK  107  A    between atoms: _261  and  _262
REMARK  108  A    between atoms: _262  and  _263
REMARK  109  A    between atoms: _263  and  _264
REMARK  110  A    between atoms: _264  and  _265
REMARK  111  A    between atoms: _269  and  _271
REMARK  112  A    between atoms: _271  and  _272
REMARK  113  A    between atoms: _271  and  _274
REMARK  114  A    between atoms: _274  and  _275
REMARK  115  A    between atoms: _281  and  _283
REMARK  116  A    between atoms: _283  and  _284
REMARK  117  A    between atoms: _286  and  _288
REMARK  118  A    between atoms: _288  and  _289
REMARK  119  A    between atoms: _291  and  _293
REMARK  120  A    between atoms: _293  and  _294
REMARK  121  A    between atoms: _293  and  _296
REMARK  122  A    between atoms: _296  and  _297
REMARK  123  A    between atoms: _297  and  _298
REMARK  124  A    between atoms: _298  and  _299
REMARK  125  A    between atoms: _308  and  _310
REMARK  126  A    between atoms: _310  and  _311
REMARK  127  A    between atoms: _310  and  _313
REMARK  128  A    between atoms: _313  and  _314
REMARK  129  A    between atoms: _317  and  _319
REMARK  130  A    between atoms: _319  and  _320
REMARK  131  A    between atoms: _319  and  _322
REMARK  132  A    between atoms: _322  and  _323
REMARK  133  A    between atoms: _329  and  _331
REMARK  134  A    between atoms: _331  and  _332
REMARK  135  A    between atoms: _331  and  _334
REMARK  136  A    between atoms: _334  and  _335
REMARK  137  A    between atoms: _338  and  _340
REMARK  138  A    between atoms: _340  and  _341
REMARK  139  A    between atoms: _344  and  _346
REMARK  140  A    between atoms: _346  and  _347
REMARK  141  A    between atoms: _346  and  _349
REMARK  142  A    between atoms: _349  and  _350
REMARK  143  A    between atoms: _350  and  _351
REMARK  144  A    between atoms: _354  and  _356
REMARK  145  A    between atoms: _356  and  _357
REMARK  146  A    between atoms: _356  and  _359
REMARK  147  A    between atoms: _359  and  _360
REMARK  148  A    between atoms: _360  and  _361
REMARK  149  A    between atoms: _361  and  _362
REMARK  150  A    between atoms: _362  and  _363
REMARK  151  A    between atoms: _367  and  _369
REMARK  152  A    between atoms: _369  and  _370
REMARK  153  A    between atoms: _369  and  _372
REMARK  154  A    between atoms: _372  and  _373
REMARK  155  A    between atoms: _376  and  _378
REMARK  156  A    between atoms: _378  and  _379
REMARK  157  A    between atoms: _378  and  _381
REMARK  158  A    between atoms: _381  and  _382
REMARK  159  A    between atoms: _382  and  _383
REMARK  160  A    between atoms: _383  and  _384
REMARK  161  A    between atoms: _384  and  _385
REMARK  162  A    between atoms: _389  and  _391
REMARK  163  A    between atoms: _391  and  _392
REMARK  164  A    between atoms: _391  and  _394
REMARK  165  A    between atoms: _394  and  _395
REMARK  166  A    between atoms: _395  and  _396
REMARK  167  A    between atoms: _396  and  _397
REMARK  168  A    between atoms: _397  and  _398
REMARK  169  A    between atoms: _402  and  _404
REMARK  170  A    between atoms: _404  and  _405
REMARK  171  A    between atoms: _404  and  _407
REMARK  172  A    between atoms: _410  and  _412
REMARK  173  A    between atoms: _412  and  _413
REMARK  174  A    between atoms: _412  and  _415
REMARK  175  A    between atoms: _415  and  _416
REMARK  176  A    between atoms: _419  and  _421
REMARK  177  A    between atoms: _421  and  _422
REMARK  178  A    between atoms: _421  and  _424
REMARK  179  A    between atoms: _424  and  _425
REMARK  180  A    between atoms: _427  and  _429
REMARK  181  A    between atoms: _429  and  _430
REMARK  182  A    between atoms: _433  and  _435
REMARK  183  A    between atoms: _435  and  _436
REMARK  184  A    between atoms: _435  and  _438
REMARK  185  A    between atoms: _438  and  _439
REMARK  186  A    between atoms: _442  and  _444
REMARK  187  A    between atoms: _444  and  _445
REMARK  188  A    between atoms: _444  and  _447
REMARK  189  A    between atoms: _447  and  _448
REMARK  190  A    between atoms: _451  and  _453
REMARK  191  A    between atoms: _453  and  _454
REMARK  192  A    between atoms: _456  and  _458
REMARK  193  A    between atoms: _458  and  _459
REMARK  194  A    between atoms: _461  and  _463
REMARK  195  A    between atoms: _463  and  _464
REMARK  196  A    between atoms: _463  and  _466
REMARK  197  A    between atoms: _466  and  _467
REMARK  198  A    between atoms: _470  and  _472
REMARK  199  A    between atoms: _472  and  _473
REMARK  200  A    between atoms: _472  and  _475
REMARK  201  A    between atoms: _475  and  _476
REMARK  202  A    between atoms: _479  and  _481
REMARK  203  A    between atoms: _481  and  _482
REMARK  204  A    between atoms: _481  and  _484
REMARK  205  A    between atoms: _484  and  _485
REMARK  206  A    between atoms: _485  and  _486
REMARK  207  A    between atoms: _486  and  _487
REMARK  208  A    between atoms: _496  and  _498
REMARK  209  A    between atoms: _498  and  _499
REMARK  210  A    between atoms: _498  and  _501
REMARK  211  A    between atoms: _501  and  _502
REMARK  212  A    between atoms: _506  and  _507
REMARK  213  A    between atoms: _512  and  _514
REMARK  214  A    between atoms: _514  and  _515
REMARK  215  A    between atoms: _514  and  _517
REMARK  216  A    between atoms: _517  and  _518
REMARK  217  A    between atoms: _521  and  _523
REMARK  218  A    between atoms: _523  and  _524
REMARK  219  A    between atoms: _523  and  _526
REMARK  220  A    between atoms: _526  and  _527
REMARK  221  A    between atoms: _527  and  _528
REMARK  222  A    between atoms: _528  and  _529
REMARK  223  A    between atoms: _529  and  _530
REMARK  224  A    between atoms: _534  and  _536
REMARK  225  A    between atoms: _536  and  _537
REMARK  226  A    between atoms: _536  and  _539
REMARK  227  A    between atoms: _539  and  _540
REMARK  228  A    between atoms: _540  and  _541
REMARK  229  A    between atoms: _546  and  _548
REMARK  230  A    between atoms: _548  and  _549
REMARK  231  A    between atoms: _548  and  _551
REMARK  232  A    between atoms: _551  and  _552
REMARK  233  A    between atoms: _555  and  _557
REMARK  234  A    between atoms: _557  and  _558
REMARK  235  A    between atoms: _557  and  _560
REMARK  236  A    between atoms: _560  and  _561
REMARK  237  A    between atoms: _564  and  _566
REMARK  238  A    between atoms: _566  and  _567
REMARK  239  A    between atoms: _566  and  _569
REMARK  240  A    between atoms: _569  and  _570
REMARK  241  A    between atoms: _575  and  _577
REMARK  242  A    between atoms: _577  and  _578
REMARK  243  A    between atoms: _577  and  _580
REMARK  244  A    between atoms: _580  and  _581
REMARK  245  A    between atoms: _584  and  _586
REMARK  246  A    between atoms: _586  and  _587
REMARK  247  A    between atoms: _586  and  _589
REMARK  248  A    between atoms: _589  and  _590
REMARK  249  A    between atoms: _590  and  _591
REMARK  250  A    between atoms: _596  and  _598
REMARK  251  A    between atoms: _598  and  _599
REMARK  252  A    between atoms: _601  and  _603
REMARK  253  A    between atoms: _603  and  _604
REMARK  254  A    between atoms: _603  and  _606
REMARK  255  A    between atoms: _606  and  _607
REMARK  256  A    between atoms: _612  and  _614
REMARK  257  A    between atoms: _614  and  _615
REMARK  258  A    between atoms: _614  and  _617
REMARK  259  A    between atoms: _617  and  _618
REMARK  260  A    between atoms: _621  and  _623
REMARK  261  A    between atoms: _623  and  _624
REMARK  262  A    between atoms: _623  and  _626
REMARK  263  A    between atoms: _626  and  _627
REMARK                            x       y       z     vdW  Elec       q    Type
REMARK                         _______ _______ _______ _____ _____    ______ ____
ROOT
ATOM      1  O   HOH     1      84.119  77.119 181.683  0.00  0.00    +0.000 OA
ENDROOT
TORSDOF 0
REMARK  Name = ../refined-set-2016/3d2e/3d2e_pocket.pdb
REMARK  263 active torsions:
REMARK  status: ('A' for Active; 'I' for Inactive)
REMARK    1  A    between atoms: _1  and  _3
REMARK    2  A    between atoms: _3  and  _4
REMARK    3  A    between atoms: _3  and  _6
REMARK    4  A    between atoms: _6  and  _7
REMARK    5  A    between atoms: _10  and  _12
REMARK    6  A    between atoms: _12  and  _13
REMARK    7  A    between atoms: _12  and  _15
REMARK    8  A    between atoms: _15  and  _16
REMARK    9  A    between atoms: _19  and  _21
REMARK   10  A    between atoms: _21  and  _22
REMARK   11  A    between atoms: _24  and  _26
REMARK   12  A    between atoms: _26  and  _27
REMARK   13  A    between atoms: _26  and  _29
REMARK   14  A    between atoms: _29  and  _30
REMARK   15  A    between atoms: _35  and  _37
REMARK   16  A    between atoms: _37  and  _38
REMARK   17  A    between atoms: _37  and  _40
REMARK   18  A    between atoms: _40  and  _41
REMARK   19  A    between atoms: _46  and  _48
REMARK   20  A    between atoms: _48  and  _49
REMARK   21  A    between atoms: _48  and  _51
REMARK   22  A    between atoms: _51  and  _52
REMARK   23  A    between atoms: _57  and  _59
REMARK   24  A    between atoms: _59  and  _60
REMARK   25  A    between atoms: _59  and  _62
REMARK   26  A    between atoms: _62  and  _63
REMARK   27  A    between atoms: _65  and  _67
REMARK   28  A    between atoms: _67  and  _68
REMARK   29  A    between atoms: _67  and  _70
REMARK   30  A    between atoms: _73  and  _75
REMARK   31  A    between atoms: _75  and  _76
REMARK   32  A    between atoms: _75  and  _78
REMARK   33  A    between atoms: _78  and  _79
REMARK   34  A    between atoms: _81  and  _83
REMARK   35  A    between atoms: _83  and  _84
REMARK   36  A    between atoms: _83  and  _86
REMARK   37  A    between atoms: _86  and  _87
REMARK   38  A    between atoms: _90  and  _92
REMARK   39  A    between atoms: _92  and  _93
REMARK   40  A    between atoms: _92  and  _95
REMARK   41  A    between atoms: _95  and  _96
REMARK   42  A    between atoms: _98  and  _100
REMARK   43  A    between atoms: _100  and  _101
REMARK   44  A    between atoms: _100  and  _103
REMARK   45  A    between atoms: _103  and  _104
REMARK   46  A    between atoms: _104  and  _105
REMARK   47  A    between atoms: _105  and  _106
REMARK   48  A    between atoms: _106  and  _107
REMARK   49  A    between atoms: _111  and  _113
REMARK   50  A    between atoms: _113  and  _114
REMARK   51  A    between atoms: _113  and  _116
REMARK   52  A    between atoms: _116  and  _117
REMARK   53  A    between atoms: _117  and  _118
REMARK   54  A    between atoms: _118  and  _119
REMARK   55  A    between atoms: _128  and  _130
REMARK   56  A    between atoms: _130  and  _131
REMARK   57  A    between atoms: _134  and  _136
REMARK   58  A    between atoms: _136  and  _137
REMARK   59  A    between atoms: _136  and  _139
REMARK   60  A    between atoms: _143  and  _144
REMARK   61  A    between atoms: _149  and  _151
REMARK   62  A    between atoms: _151  and  _152
REMARK   63  A    between atoms: _151  and  _154
REMARK   64  A    between atoms: _154  and  _155
REMARK   65  A    between atoms: _165  and  _167
REMARK   66  A    between atoms: _167  and  _168
REMARK   67  A    between atoms: _167  and  _170
REMARK   68  A    between atoms: _170  and  _171
REMARK   69  A    between atoms: _174  and  _176
REMARK   70  A    between atoms: _176  and  _177
REMARK   71  A    between atoms: _176  and  _179
REMARK   72  A    between atoms: _179  and  _180
REMARK   73  A    between atoms: _183  and  _185
REMARK   74  A    between atoms: _185  and  _186
REMARK   75  A    between atoms: _185  and  _188
REMARK   76  A    between atoms: _188  and  _189
REMARK   77  A    between atoms: _192  and  _194
REMARK   78  A    between atoms: _194  and  _195
REMARK   79  A    between atoms: _197  and  _199
REMARK   80  A    between atoms: _199  and  _200
REMARK   81  A    between atoms: _199  and  _202
REMARK   82  A    between atoms: _202  and  _203
REMARK   83  A    between atoms: _208  and  _210
REMARK   84  A    between atoms: _210  and  _211
REMARK   85  A    between atoms: _210  and  _213
REMARK   86  A    between atoms: _213  and  _214
REMARK   87  A    between atoms: _216  and  _218
REMARK   88  A    between atoms: _218  and  _219
REMARK   89  A    between atoms: _218  and  _221
REMARK   90  A    between atoms: _221  and  _222
REMARK   91  A    between atoms: _224  and  _226
REMARK   92  A    between atoms: _226  and  _227
REMARK   93  A    between atoms: _226  and  _229
REMARK   94  A    between atoms: _229  and  _230
REMARK   95  A    between atoms: _235  and  _236
REMARK   96  A    between atoms: _238  and  _240
REMARK   97  A    between atoms: _240  and  _241
REMARK   98  A    between atoms: _240  and  _243
REMARK   99  A    between atoms: _243  and  _244
REMARK  100  A    between atoms: _247  and  _249
REMARK  101  A    between atoms: _249  and  _250
REMARK  102  A    between atoms: _249  and  _252
REMARK  103  A    between atoms: _252  and  _253
REMARK  104  A    between atoms: _256  and  _258
REMARK  105  A    between atoms: _258  and  _259
REMARK  106  A    between atoms: _258  and  _261
REMARK  107  A    between atoms: _261  and  _262
REMARK  108  A    between atoms: _262  and  _263
REMARK  109  A    between atoms: _263  and  _264
REMARK  110  A    between atoms: _264  and  _265
REMARK  111  A    between atoms: _269  and  _271
REMARK  112  A    between atoms: _271  and  _272
REMARK  113  A    between atoms: _271  and  _274
REMARK  114  A    between atoms: _274  and  _275
REMARK  115  A    between atoms: _281  and  _283
REMARK  116  A    between atoms: _283  and  _284
REMARK  117  A    between atoms: _286  and  _288
REMARK  118  A    between atoms: _288  and  _289
REMARK  119  A    between atoms: _291  and  _293
REMARK  120  A    between atoms: _293  and  _294
REMARK  121  A    between atoms: _293  and  _296
REMARK  122  A    between atoms: _296  and  _297
REMARK  123  A    between atoms: _297  and  _298
REMARK  124  A    between atoms: _298  and  _299
REMARK  125  A    between atoms: _308  and  _310
REMARK  126  A    between atoms: _310  and  _311
REMARK  127  A    between atoms: _310  and  _313
REMARK  128  A    between atoms: _313  and  _314
REMARK  129  A    between atoms: _317  and  _319
REMARK  130  A    between atoms: _319  and  _320
REMARK  131  A    between atoms: _319  and  _322
REMARK  132  A    between atoms: _322  and  _323
REMARK  133  A    between atoms: _329  and  _331
REMARK  134  A    between atoms: _331  and  _332
REMARK  135  A    between atoms: _331  and  _334
REMARK  136  A    between atoms: _334  and  _335
REMARK  137  A    between atoms: _338  and  _340
REMARK  138  A    between atoms: _340  and  _341
REMARK  139  A    between atoms: _344  and  _346
REMARK  140  A    between atoms: _346  and  _347
REMARK  141  A    between atoms: _346  and  _349
REMARK  142  A    between atoms: _349  and  _350
REMARK  143  A    between atoms: _350  and  _351
REMARK  144  A    between atoms: _354  and  _356
REMARK  145  A    between atoms: _356  and  _357
REMARK  146  A    between atoms: _356  and  _359
REMARK  147  A    between atoms: _359  and  _360
REMARK  148  A    between atoms: _360  and  _361
REMARK  149  A    between atoms: _361  and  _362
REMARK  150  A    between atoms: _362  and  _363
REMARK  151  A    between atoms: _367  and  _369
REMARK  152  A    between atoms: _369  and  _370
REMARK  153  A    between atoms: _369  and  _372
REMARK  154  A    between atoms: _372  and  _373
REMARK  155  A    between atoms: _376  and  _378
REMARK  156  A    between atoms: _378  and  _379
REMARK  157  A    between atoms: _378  and  _381
REMARK  158  A    between atoms: _381  and  _382
REMARK  159  A    between atoms: _382  and  _383
REMARK  160  A    between atoms: _383  and  _384
REMARK  161  A    between atoms: _384  and  _385
REMARK  162  A    between atoms: _389  and  _391
REMARK  163  A    between atoms: _391  and  _392
REMARK  164  A    between atoms: _391  and  _394
REMARK  165  A    between atoms: _394  and  _395
REMARK  166  A    between atoms: _395  and  _396
REMARK  167  A    between atoms: _396  and  _397
REMARK  168  A    between atoms: _397  and  _398
REMARK  169  A    between atoms: _402  and  _404
REMARK  170  A    between atoms: _404  and  _405
REMARK  171  A    between atoms: _404  and  _407
REMARK  172  A    between atoms: _410  and  _412
REMARK  173  A    between atoms: _412  and  _413
REMARK  174  A    between atoms: _412  and  _415
REMARK  175  A    between atoms: _415  and  _416
REMARK  176  A    between atoms: _419  and  _421
REMARK  177  A    between atoms: _421  and  _422
REMARK  178  A    between atoms: _421  and  _424
REMARK  179  A    between atoms: _424  and  _425
REMARK  180  A    between atoms: _427  and  _429
REMARK  181  A    between atoms: _429  and  _430
REMARK  182  A    between atoms: _433  and  _435
REMARK  183  A    between atoms: _435  and  _436
REMARK  184  A    between atoms: _435  and  _438
REMARK  185  A    between atoms: _438  and  _439
REMARK  186  A    between atoms: _442  and  _444
REMARK  187  A    between atoms: _444  and  _445
REMARK  188  A    between atoms: _444  and  _447
REMARK  189  A    between atoms: _447  and  _448
REMARK  190  A    between atoms: _451  and  _453
REMARK  191  A    between atoms: _453  and  _454
REMARK  192  A    between atoms: _456  and  _458
REMARK  193  A    between atoms: _458  and  _459
REMARK  194  A    between atoms: _461  and  _463
REMARK  195  A    between atoms: _463  and  _464
REMARK  196  A    between atoms: _463  and  _466
REMARK  197  A    between atoms: _466  and  _467
REMARK  198  A    between atoms: _470  and  _472
REMARK  199  A    between atoms: _472  and  _473
REMARK  200  A    between atoms: _472  and  _475
REMARK  201  A    between atoms: _475  and  _476
REMARK  202  A    between atoms: _479  and  _481
REMARK  203  A    between atoms: _481  and  _482
REMARK  204  A    between atoms: _481  and  _484
REMARK  205  A    between atoms: _484  and  _485
REMARK  206  A    between atoms: _485  and  _486
REMARK  207  A    between atoms: _486  and  _487
REMARK  208  A    between atoms: _496  and  _498
REMARK  209  A    between atoms: _498  and  _499
REMARK  210  A    between atoms: _498  and  _501
REMARK  211  A    between atoms: _501  and  _502
REMARK  212  A    between atoms: _506  and  _507
REMARK  213  A    between atoms: _512  and  _514
REMARK  214  A    between atoms: _514  and  _515
REMARK  215  A    between atoms: _514  and  _517
REMARK  216  A    between atoms: _517  and  _518
REMARK  217  A    between atoms: _521  and  _523
REMARK  218  A    between atoms: _523  and  _524
REMARK  219  A    between atoms: _523  and  _526
REMARK  220  A    between atoms: _526  and  _527
REMARK  221  A    between atoms: _527  and  _528
REMARK  222  A    between atoms: _528  and  _529
REMARK  223  A    between atoms: _529  and  _530
REMARK  224  A    between atoms: _534  and  _536
REMARK  225  A    between atoms: _536  and  _537
REMARK  226  A    between atoms: _536  and  _539
REMARK  227  A    between atoms: _539  and  _540
REMARK  228  A    between atoms: _540  and  _541
REMARK  229  A    between atoms: _546  and  _548
REMARK  230  A    between atoms: _548  and  _549
REMARK  231  A    between atoms: _548  and  _551
REMARK  232  A    between atoms: _551  and  _552
REMARK  233  A    between atoms: _555  and  _557
REMARK  234  A    between atoms: _557  and  _558
REMARK  235  A    between atoms: _557  and  _560
REMARK  236  A    between atoms: _560  and  _561
REMARK  237  A    between atoms: _564  and  _566
REMARK  238  A    between atoms: _566  and  _567
REMARK  239  A    between atoms: _566  and  _569
REMARK  240  A    between atoms: _569  and  _570
REMARK  241  A    between atoms: _575  and  _577
REMARK  242  A    between atoms: _577  and  _578
REMARK  243  A    between atoms: _577  and  _580
REMARK  244  A    between atoms: _580  and  _581
REMARK  245  A    between atoms: _584  and  _586
REMARK  246  A    between atoms: _586  and  _587
REMARK  247  A    between atoms: _586  and  _589
REMARK  248  A    between atoms: _589  and  _590
REMARK  249  A    between atoms: _590  and  _591
REMARK  250  A    between atoms: _596  and  _598
REMARK  251  A    between atoms: _598  and  _599
REMARK  252  A    between atoms: _601  and  _603
REMARK  253  A    between atoms: _603  and  _604
REMARK  254  A    between atoms: _603  and  _606
REMARK  255  A    between atoms: _606  and  _607
REMARK  256  A    between atoms: _612  and  _614
REMARK  257  A    between atoms: _614  and  _615
REMARK  258  A    between atoms: _614  and  _617
REMARK  259  A    between atoms: _617  and  _618
REMARK  260  A    between atoms: _621  and  _623
REMARK  261  A    between atoms: _623  and  _624
REMARK  262  A    between atoms: _623  and  _626
REMARK  263  A    between atoms: _626  and  _627
REMARK                            x       y       z     vdW  Elec       q    Type
REMARK                         _______ _______ _______ _____ _____    ______ ____
ROOT
ATOM      1  O   HOH     1      85.203  79.986 185.508  0.00  0.00    +0.000 OA
ENDROOT
TORSDOF 0
REMARK  Name = ../refined-set-2016/3d2e/3d2e_pocket.pdb
REMARK  263 active torsions:
REMARK  status: ('A' for Active; 'I' for Inactive)
REMARK    1  A    between atoms: _1  and  _3
REMARK    2  A    between atoms: _3  and  _4
REMARK    3  A    between atoms: _3  and  _6
REMARK    4  A    between atoms: _6  and  _7
REMARK    5  A    between atoms: _10  and  _12
REMARK    6  A    between atoms: _12  and  _13
REMARK    7  A    between atoms: _12  and  _15
REMARK    8  A    between atoms: _15  and  _16
REMARK    9  A    between atoms: _19  and  _21
REMARK   10  A    between atoms: _21  and  _22
REMARK   11  A    between atoms: _24  and  _26
REMARK   12  A    between atoms: _26  and  _27
REMARK   13  A    between atoms: _26  and  _29
REMARK   14  A    between atoms: _29  and  _30
REMARK   15  A    between atoms: _35  and  _37
REMARK   16  A    between atoms: _37  and  _38
REMARK   17  A    between atoms: _37  and  _40
REMARK   18  A    between atoms: _40  and  _41
REMARK   19  A    between atoms: _46  and  _48
REMARK   20  A    between atoms: _48  and  _49
REMARK   21  A    between atoms: _48  and  _51
REMARK   22  A    between atoms: _51  and  _52
REMARK   23  A    between atoms: _57  and  _59
REMARK   24  A    between atoms: _59  and  _60
REMARK   25  A    between atoms: _59  and  _62
REMARK   26  A    between atoms: _62  and  _63
REMARK   27  A    between atoms: _65  and  _67
REMARK   28  A    between atoms: _67  and  _68
REMARK   29  A    between atoms: _67  and  _70
REMARK   30  A    between atoms: _73  and  _75
REMARK   31  A    between atoms: _75  and  _76
REMARK   32  A    between atoms: _75  and  _78
REMARK   33  A    between atoms: _78  and  _79
REMARK   34  A    between atoms: _81  and  _83
REMARK   35  A    between atoms: _83  and  _84
REMARK   36  A    between atoms: _83  and  _86
REMARK   37  A    between atoms: _86  and  _87
REMARK   38  A    between atoms: _90  and  _92
REMARK   39  A    between atoms: _92  and  _93
REMARK   40  A    between atoms: _92  and  _95
REMARK   41  A    between atoms: _95  and  _96
REMARK   42  A    between atoms: _98  and  _100
REMARK   43  A    between atoms: _100  and  _101
REMARK   44  A    between atoms: _100  and  _103
REMARK   45  A    between atoms: _103  and  _104
REMARK   46  A    between atoms: _104  and  _105
REMARK   47  A    between atoms: _105  and  _106
REMARK   48  A    between atoms: _106  and  _107
REMARK   49  A    between atoms: _111  and  _113
REMARK   50  A    between atoms: _113  and  _114
REMARK   51  A    between atoms: _113  and  _116
REMARK   52  A    between atoms: _116  and  _117
REMARK   53  A    between atoms: _117  and  _118
REMARK   54  A    between atoms: _118  and  _119
REMARK   55  A    between atoms: _128  and  _130
REMARK   56  A    between atoms: _130  and  _131
REMARK   57  A    between atoms: _134  and  _136
REMARK   58  A    between atoms: _136  and  _137
REMARK   59  A    between atoms: _136  and  _139
REMARK   60  A    between atoms: _143  and  _144
REMARK   61  A    between atoms: _149  and  _151
REMARK   62  A    between atoms: _151  and  _152
REMARK   63  A    between atoms: _151  and  _154
REMARK   64  A    between atoms: _154  and  _155
REMARK   65  A    between atoms: _165  and  _167
REMARK   66  A    between atoms: _167  and  _168
REMARK   67  A    between atoms: _167  and  _170
REMARK   68  A    between atoms: _170  and  _171
REMARK   69  A    between atoms: _174  and  _176
REMARK   70  A    between atoms: _176  and  _177
REMARK   71  A    between atoms: _176  and  _179
REMARK   72  A    between atoms: _179  and  _180
REMARK   73  A    between atoms: _183  and  _185
REMARK   74  A    between atoms: _185  and  _186
REMARK   75  A    between atoms: _185  and  _188
REMARK   76  A    between atoms: _188  and  _189
REMARK   77  A    between atoms: _192  and  _194
REMARK   78  A    between atoms: _194  and  _195
REMARK   79  A    between atoms: _197  and  _199
REMARK   80  A    between atoms: _199  and  _200
REMARK   81  A    between atoms: _199  and  _202
REMARK   82  A    between atoms: _202  and  _203
REMARK   83  A    between atoms: _208  and  _210
REMARK   84  A    between atoms: _210  and  _211
REMARK   85  A    between atoms: _210  and  _213
REMARK   86  A    between atoms: _213  and  _214
REMARK   87  A    between atoms: _216  and  _218
REMARK   88  A    between atoms: _218  and  _219
REMARK   89  A    between atoms: _218  and  _221
REMARK   90  A    between atoms: _221  and  _222
REMARK   91  A    between atoms: _224  and  _226
REMARK   92  A    between atoms: _226  and  _227
REMARK   93  A    between atoms: _226  and  _229
REMARK   94  A    between atoms: _229  and  _230
REMARK   95  A    between atoms: _235  and  _236
REMARK   96  A    between atoms: _238  and  _240
REMARK   97  A    between atoms: _240  and  _241
REMARK   98  A    between atoms: _240  and  _243
REMARK   99  A    between atoms: _243  and  _244
REMARK  100  A    between atoms: _247  and  _249
REMARK  101  A    between atoms: _249  and  _250
REMARK  102  A    between atoms: _249  and  _252
REMARK  103  A    between atoms: _252  and  _253
REMARK  104  A    between atoms: _256  and  _258
REMARK  105  A    between atoms: _258  and  _259
REMARK  106  A    between atoms: _258  and  _261
REMARK  107  A    between atoms: _261  and  _262
REMARK  108  A    between atoms: _262  and  _263
REMARK  109  A    between atoms: _263  and  _264
REMARK  110  A    between atoms: _264  and  _265
REMARK  111  A    between atoms: _269  and  _271
REMARK  112  A    between atoms: _271  and  _272
REMARK  113  A    between atoms: _271  and  _274
REMARK  114  A    between atoms: _274  and  _275
REMARK  115  A    between atoms: _281  and  _283
REMARK  116  A    between atoms: _283  and  _284
REMARK  117  A    between atoms: _286  and  _288
REMARK  118  A    between atoms: _288  and  _289
REMARK  119  A    between atoms: _291  and  _293
REMARK  120  A    between atoms: _293  and  _294
REMARK  121  A    between atoms: _293  and  _296
REMARK  122  A    between atoms: _296  and  _297
REMARK  123  A    between atoms: _297  and  _298
REMARK  124  A    between atoms: _298  and  _299
REMARK  125  A    between atoms: _308  and  _310
REMARK  126  A    between atoms: _310  and  _311
REMARK  127  A    between atoms: _310  and  _313
REMARK  128  A    between atoms: _313  and  _314
REMARK  129  A    between atoms: _317  and  _319
REMARK  130  A    between atoms: _319  and  _320
REMARK  131  A    between atoms: _319  and  _322
REMARK  132  A    between atoms: _322  and  _323
REMARK  133  A    between atoms: _329  and  _331
REMARK  134  A    between atoms: _331  and  _332
REMARK  135  A    between atoms: _331  and  _334
REMARK  136  A    between atoms: _334  and  _335
REMARK  137  A    between atoms: _338  and  _340
REMARK  138  A    between atoms: _340  and  _341
REMARK  139  A    between atoms: _344  and  _346
REMARK  140  A    between atoms: _346  and  _347
REMARK  141  A    between atoms: _346  and  _349
REMARK  142  A    between atoms: _349  and  _350
REMARK  143  A    between atoms: _350  and  _351
REMARK  144  A    between atoms: _354  and  _356
REMARK  145  A    between atoms: _356  and  _357
REMARK  146  A    between atoms: _356  and  _359
REMARK  147  A    between atoms: _359  and  _360
REMARK  148  A    between atoms: _360  and  _361
REMARK  149  A    between atoms: _361  and  _362
REMARK  150  A    between atoms: _362  and  _363
REMARK  151  A    between atoms: _367  and  _369
REMARK  152  A    between atoms: _369  and  _370
REMARK  153  A    between atoms: _369  and  _372
REMARK  154  A    between atoms: _372  and  _373
REMARK  155  A    between atoms: _376  and  _378
REMARK  156  A    between atoms: _378  and  _379
REMARK  157  A    between atoms: _378  and  _381
REMARK  158  A    between atoms: _381  and  _382
REMARK  159  A    between atoms: _382  and  _383
REMARK  160  A    between atoms: _383  and  _384
REMARK  161  A    between atoms: _384  and  _385
REMARK  162  A    between atoms: _389  and  _391
REMARK  163  A    between atoms: _391  and  _392
REMARK  164  A    between atoms: _391  and  _394
REMARK  165  A    between atoms: _394  and  _395
REMARK  166  A    between atoms: _395  and  _396
REMARK  167  A    between atoms: _396  and  _397
REMARK  168  A    between atoms: _397  and  _398
REMARK  169  A    between atoms: _402  and  _404
REMARK  170  A    between atoms: _404  and  _405
REMARK  171  A    between atoms: _404  and  _407
REMARK  172  A    between atoms: _410  and  _412
REMARK  173  A    between atoms: _412  and  _413
REMARK  174  A    between atoms: _412  and  _415
REMARK  175  A    between atoms: _415  and  _416
REMARK  176  A    between atoms: _419  and  _421
REMARK  177  A    between atoms: _421  and  _422
REMARK  178  A    between atoms: _421  and  _424
REMARK  179  A    between atoms: _424  and  _425
REMARK  180  A    between atoms: _427  and  _429
REMARK  181  A    between atoms: _429  and  _430
REMARK  182  A    between atoms: _433  and  _435
REMARK  183  A    between atoms: _435  and  _436
REMARK  184  A    between atoms: _435  and  _438
REMARK  185  A    between atoms: _438  and  _439
REMARK  186  A    between atoms: _442  and  _444
REMARK  187  A    between atoms: _444  and  _445
REMARK  188  A    between atoms: _444  and  _447
REMARK  189  A    between atoms: _447  and  _448
REMARK  190  A    between atoms: _451  and  _453
REMARK  191  A    between atoms: _453  and  _454
REMARK  192  A    between atoms: _456  and  _458
REMARK  193  A    between atoms: _458  and  _459
REMARK  194  A    between atoms: _461  and  _463
REMARK  195  A    between atoms: _463  and  _464
REMARK  196  A    between atoms: _463  and  _466
REMARK  197  A    between atoms: _466  and  _467
REMARK  198  A    between atoms: _470  and  _472
REMARK  199  A    between atoms: _472  and  _473
REMARK  200  A    between atoms: _472  and  _475
REMARK  201  A    between atoms: _475  and  _476
REMARK  202  A    between atoms: _479  and  _481
REMARK  203  A    between atoms: _481  and  _482
REMARK  204  A    between atoms: _481  and  _484
REMARK  205  A    between atoms: _484  and  _485
REMARK  206  A    between atoms: _485  and  _486
REMARK  207  A    between atoms: _486  and  _487
REMARK  208  A    between atoms: _496  and  _498
REMARK  209  A    between atoms: _498  and  _499
REMARK  210  A    between atoms: _498  and  _501
REMARK  211  A    between atoms: _501  and  _502
REMARK  212  A    between atoms: _506  and  _507
REMARK  213  A    between atoms: _512  and  _514
REMARK  214  A    between atoms: _514  and  _515
REMARK  215  A    between atoms: _514  and  _517
REMARK  216  A    between atoms: _517  and  _518
REMARK  217  A    between atoms: _521  and  _523
REMARK  218  A    between atoms: _523  and  _524
REMARK  219  A    between atoms: _523  and  _526
REMARK  220  A    between atoms: _526  and  _527
REMARK  221  A    between atoms: _527  and  _528
REMARK  222  A    between atoms: _528  and  _529
REMARK  223  A    between atoms: _529  and  _530
REMARK  224  A    between atoms: _534  and  _536
REMARK  225  A    between atoms: _536  and  _537
REMARK  226  A    between atoms: _536  and  _539
REMARK  227  A    between atoms: _539  and  _540
REMARK  228  A    between atoms: _540  and  _541
REMARK  229  A    between atoms: _546  and  _548
REMARK  230  A    between atoms: _548  and  _549
REMARK  231  A    between atoms: _548  and  _551
REMARK  232  A    between atoms: _551  and  _552
REMARK  233  A    between atoms: _555  and  _557
REMARK  234  A    between atoms: _557  and  _558
REMARK  235  A    between atoms: _557  and  _560
REMARK  236  A    between atoms: _560  and  _561
REMARK  237  A    between atoms: _564  and  _566
REMARK  238  A    between atoms: _566  and  _567
REMARK  239  A    between atoms: _566  and  _569
REMARK  240  A    between atoms: _569  and  _570
REMARK  241  A    between atoms: _575  and  _577
REMARK  242  A    between atoms: _577  and  _578
REMARK  243  A    between atoms: _577  and  _580
REMARK  244  A    between atoms: _580  and  _581
REMARK  245  A    between atoms: _584  and  _586
REMARK  246  A    between atoms: _586  and  _587
REMARK  247  A    between atoms: _586  and  _589
REMARK  248  A    between atoms: _589  and  _590
REMARK  249  A    between atoms: _590  and  _591
REMARK  250  A    between atoms: _596  and  _598
REMARK  251  A    between atoms: _598  and  _599
REMARK  252  A    between atoms: _601  and  _603
REMARK  253  A    between atoms: _603  and  _604
REMARK  254  A    between atoms: _603  and  _606
REMARK  255  A    between atoms: _606  and  _607
REMARK  256  A    between atoms: _612  and  _614
REMARK  257  A    between atoms: _614  and  _615
REMARK  258  A    between atoms: _614  and  _617
REMARK  259  A    between atoms: _617  and  _618
REMARK  260  A    between atoms: _621  and  _623
REMARK  261  A    between atoms: _623  and  _624
REMARK  262  A    between atoms: _623  and  _626
REMARK  263  A    between atoms: _626  and  _627
REMARK                            x       y       z     vdW  Elec       q    Type
REMARK                         _______ _______ _______ _____ _____    ______ ____
ROOT
ATOM      1  O   HOH     1      82.851  81.002 184.571  0.00  0.00    +0.000 OA
ENDROOT
TORSDOF 0
REMARK  Name = ../refined-set-2016/3d2e/3d2e_pocket.pdb
REMARK  263 active torsions:
REMARK  status: ('A' for Active; 'I' for Inactive)
REMARK    1  A    between atoms: _1  and  _3
REMARK    2  A    between atoms: _3  and  _4
REMARK    3  A    between atoms: _3  and  _6
REMARK    4  A    between atoms: _6  and  _7
REMARK    5  A    between atoms: _10  and  _12
REMARK    6  A    between atoms: _12  and  _13
REMARK    7  A    between atoms: _12  and  _15
REMARK    8  A    between atoms: _15  and  _16
REMARK    9  A    between atoms: _19  and  _21
REMARK   10  A    between atoms: _21  and  _22
REMARK   11  A    between atoms: _24  and  _26
REMARK   12  A    between atoms: _26  and  _27
REMARK   13  A    between atoms: _26  and  _29
REMARK   14  A    between atoms: _29  and  _30
REMARK   15  A    between atoms: _35  and  _37
REMARK   16  A    between atoms: _37  and  _38
REMARK   17  A    between atoms: _37  and  _40
REMARK   18  A    between atoms: _40  and  _41
REMARK   19  A    between atoms: _46  and  _48
REMARK   20  A    between atoms: _48  and  _49
REMARK   21  A    between atoms: _48  and  _51
REMARK   22  A    between atoms: _51  and  _52
REMARK   23  A    between atoms: _57  and  _59
REMARK   24  A    between atoms: _59  and  _60
REMARK   25  A    between atoms: _59  and  _62
REMARK   26  A    between atoms: _62  and  _63
REMARK   27  A    between atoms: _65  and  _67
REMARK   28  A    between atoms: _67  and  _68
REMARK   29  A    between atoms: _67  and  _70
REMARK   30  A    between atoms: _73  and  _75
REMARK   31  A    between atoms: _75  and  _76
REMARK   32  A    between atoms: _75  and  _78
REMARK   33  A    between atoms: _78  and  _79
REMARK   34  A    between atoms: _81  and  _83
REMARK   35  A    between atoms: _83  and  _84
REMARK   36  A    between atoms: _83  and  _86
REMARK   37  A    between atoms: _86  and  _87
REMARK   38  A    between atoms: _90  and  _92
REMARK   39  A    between atoms: _92  and  _93
REMARK   40  A    between atoms: _92  and  _95
REMARK   41  A    between atoms: _95  and  _96
REMARK   42  A    between atoms: _98  and  _100
REMARK   43  A    between atoms: _100  and  _101
REMARK   44  A    between atoms: _100  and  _103
REMARK   45  A    between atoms: _103  and  _104
REMARK   46  A    between atoms: _104  and  _105
REMARK   47  A    between atoms: _105  and  _106
REMARK   48  A    between atoms: _106  and  _107
REMARK   49  A    between atoms: _111  and  _113
REMARK   50  A    between atoms: _113  and  _114
REMARK   51  A    between atoms: _113  and  _116
REMARK   52  A    between atoms: _116  and  _117
REMARK   53  A    between atoms: _117  and  _118
REMARK   54  A    between atoms: _118  and  _119
REMARK   55  A    between atoms: _128  and  _130
REMARK   56  A    between atoms: _130  and  _131
REMARK   57  A    between atoms: _134  and  _136
REMARK   58  A    between atoms: _136  and  _137
REMARK   59  A    between atoms: _136  and  _139
REMARK   60  A    between atoms: _143  and  _144
REMARK   61  A    between atoms: _149  and  _151
REMARK   62  A    between atoms: _151  and  _152
REMARK   63  A    between atoms: _151  and  _154
REMARK   64  A    between atoms: _154  and  _155
REMARK   65  A    between atoms: _165  and  _167
REMARK   66  A    between atoms: _167  and  _168
REMARK   67  A    between atoms: _167  and  _170
REMARK   68  A    between atoms: _170  and  _171
REMARK   69  A    between atoms: _174  and  _176
REMARK   70  A    between atoms: _176  and  _177
REMARK   71  A    between atoms: _176  and  _179
REMARK   72  A    between atoms: _179  and  _180
REMARK   73  A    between atoms: _183  and  _185
REMARK   74  A    between atoms: _185  and  _186
REMARK   75  A    between atoms: _185  and  _188
REMARK   76  A    between atoms: _188  and  _189
REMARK   77  A    between atoms: _192  and  _194
REMARK   78  A    between atoms: _194  and  _195
REMARK   79  A    between atoms: _197  and  _199
REMARK   80  A    between atoms: _199  and  _200
REMARK   81  A    between atoms: _199  and  _202
REMARK   82  A    between atoms: _202  and  _203
REMARK   83  A    between atoms: _208  and  _210
REMARK   84  A    between atoms: _210  and  _211
REMARK   85  A    between atoms: _210  and  _213
REMARK   86  A    between atoms: _213  and  _214
REMARK   87  A    between atoms: _216  and  _218
REMARK   88  A    between atoms: _218  and  _219
REMARK   89  A    between atoms: _218  and  _221
REMARK   90  A    between atoms: _221  and  _222
REMARK   91  A    between atoms: _224  and  _226
REMARK   92  A    between atoms: _226  and  _227
REMARK   93  A    between atoms: _226  and  _229
REMARK   94  A    between atoms: _229  and  _230
REMARK   95  A    between atoms: _235  and  _236
REMARK   96  A    between atoms: _238  and  _240
REMARK   97  A    between atoms: _240  and  _241
REMARK   98  A    between atoms: _240  and  _243
REMARK   99  A    between atoms: _243  and  _244
REMARK  100  A    between atoms: _247  and  _249
REMARK  101  A    between atoms: _249  and  _250
REMARK  102  A    between atoms: _249  and  _252
REMARK  103  A    between atoms: _252  and  _253
REMARK  104  A    between atoms: _256  and  _258
REMARK  105  A    between atoms: _258  and  _259
REMARK  106  A    between atoms: _258  and  _261
REMARK  107  A    between atoms: _261  and  _262
REMARK  108  A    between atoms: _262  and  _263
REMARK  109  A    between atoms: _263  and  _264
REMARK  110  A    between atoms: _264  and  _265
REMARK  111  A    between atoms: _269  and  _271
REMARK  112  A    between atoms: _271  and  _272
REMARK  113  A    between atoms: _271  and  _274
REMARK  114  A    between atoms: _274  and  _275
REMARK  115  A    between atoms: _281  and  _283
REMARK  116  A    between atoms: _283  and  _284
REMARK  117  A    between atoms: _286  and  _288
REMARK  118  A    between atoms: _288  and  _289
REMARK  119  A    between atoms: _291  and  _293
REMARK  120  A    between atoms: _293  and  _294
REMARK  121  A    between atoms: _293  and  _296
REMARK  122  A    between atoms: _296  and  _297
REMARK  123  A    between atoms: _297  and  _298
REMARK  124  A    between atoms: _298  and  _299
REMARK  125  A    between atoms: _308  and  _310
REMARK  126  A    between atoms: _310  and  _311
REMARK  127  A    between atoms: _310  and  _313
REMARK  128  A    between atoms: _313  and  _314
REMARK  129  A    between atoms: _317  and  _319
REMARK  130  A    between atoms: _319  and  _320
REMARK  131  A    between atoms: _319  and  _322
REMARK  132  A    between atoms: _322  and  _323
REMARK  133  A    between atoms: _329  and  _331
REMARK  134  A    between atoms: _331  and  _332
REMARK  135  A    between atoms: _331  and  _334
REMARK  136  A    between atoms: _334  and  _335
REMARK  137  A    between atoms: _338  and  _340
REMARK  138  A    between atoms: _340  and  _341
REMARK  139  A    between atoms: _344  and  _346
REMARK  140  A    between atoms: _346  and  _347
REMARK  141  A    between atoms: _346  and  _349
REMARK  142  A    between atoms: _349  and  _350
REMARK  143  A    between atoms: _350  and  _351
REMARK  144  A    between atoms: _354  and  _356
REMARK  145  A    between atoms: _356  and  _357
REMARK  146  A    between atoms: _356  and  _359
REMARK  147  A    between atoms: _359  and  _360
REMARK  148  A    between atoms: _360  and  _361
REMARK  149  A    between atoms: _361  and  _362
REMARK  150  A    between atoms: _362  and  _363
REMARK  151  A    between atoms: _367  and  _369
REMARK  152  A    between atoms: _369  and  _370
REMARK  153  A    between atoms: _369  and  _372
REMARK  154  A    between atoms: _372  and  _373
REMARK  155  A    between atoms: _376  and  _378
REMARK  156  A    between atoms: _378  and  _379
REMARK  157  A    between atoms: _378  and  _381
REMARK  158  A    between atoms: _381  and  _382
REMARK  159  A    between atoms: _382  and  _383
REMARK  160  A    between atoms: _383  and  _384
REMARK  161  A    between atoms: _384  and  _385
REMARK  162  A    between atoms: _389  and  _391
REMARK  163  A    between atoms: _391  and  _392
REMARK  164  A    between atoms: _391  and  _394
REMARK  165  A    between atoms: _394  and  _395
REMARK  166  A    between atoms: _395  and  _396
REMARK  167  A    between atoms: _396  and  _397
REMARK  168  A    between atoms: _397  and  _398
REMARK  169  A    between atoms: _402  and  _404
REMARK  170  A    between atoms: _404  and  _405
REMARK  171  A    between atoms: _404  and  _407
REMARK  172  A    between atoms: _410  and  _412
REMARK  173  A    between atoms: _412  and  _413
REMARK  174  A    between atoms: _412  and  _415
REMARK  175  A    between atoms: _415  and  _416
REMARK  176  A    between atoms: _419  and  _421
REMARK  177  A    between atoms: _421  and  _422
REMARK  178  A    between atoms: _421  and  _424
REMARK  179  A    between atoms: _424  and  _425
REMARK  180  A    between atoms: _427  and  _429
REMARK  181  A    between atoms: _429  and  _430
REMARK  182  A    between atoms: _433  and  _435
REMARK  183  A    between atoms: _435  and  _436
REMARK  184  A    between atoms: _435  and  _438
REMARK  185  A    between atoms: _438  and  _439
REMARK  186  A    between atoms: _442  and  _444
REMARK  187  A    between atoms: _444  and  _445
REMARK  188  A    between atoms: _444  and  _447
REMARK  189  A    between atoms: _447  and  _448
REMARK  190  A    between atoms: _451  and  _453
REMARK  191  A    between atoms: _453  and  _454
REMARK  192  A    between atoms: _456  and  _458
REMARK  193  A    between atoms: _458  and  _459
REMARK  194  A    between atoms: _461  and  _463
REMARK  195  A    between atoms: _463  and  _464
REMARK  196  A    between atoms: _463  and  _466
REMARK  197  A    between atoms: _466  and  _467
REMARK  198  A    between atoms: _470  and  _472
REMARK  199  A    between atoms: _472  and  _473
REMARK  200  A    between atoms: _472  and  _475
REMARK  201  A    between atoms: _475  and  _476
REMARK  202  A    between atoms: _479  and  _481
REMARK  203  A    between atoms: _481  and  _482
REMARK  204  A    between atoms: _481  and  _484
REMARK  205  A    between atoms: _484  and  _485
REMARK  206  A    between atoms: _485  and  _486
REMARK  207  A    between atoms: _486  and  _487
REMARK  208  A    between atoms: _496  and  _498
REMARK  209  A    between atoms: _498  and  _499
REMARK  210  A    between atoms: _498  and  _501
REMARK  211  A    between atoms: _501  and  _502
REMARK  212  A    between atoms: _506  and  _507
REMARK  213  A    between atoms: _512  and  _514
REMARK  214  A    between atoms: _514  and  _515
REMARK  215  A    between atoms: _514  and  _517
REMARK  216  A    between atoms: _517  and  _518
REMARK  217  A    between atoms: _521  and  _523
REMARK  218  A    between atoms: _523  and  _524
REMARK  219  A    between atoms: _523  and  _526
REMARK  220  A    between atoms: _526  and  _527
REMARK  221  A    between atoms: _527  and  _528
REMARK  222  A    between atoms: _528  and  _529
REMARK  223  A    between atoms: _529  and  _530
REMARK  224  A    between atoms: _534  and  _536
REMARK  225  A    between atoms: _536  and  _537
REMARK  226  A    between atoms: _536  and  _539
REMARK  227  A    between atoms: _539  and  _540
REMARK  228  A    between atoms: _540  and  _541
REMARK  229  A    between atoms: _546  and  _548
REMARK  230  A    between atoms: _548  and  _549
REMARK  231  A    between atoms: _548  and  _551
REMARK  232  A    between atoms: _551  and  _552
REMARK  233  A    between atoms: _555  and  _557
REMARK  234  A    between atoms: _557  and  _558
REMARK  235  A    between atoms: _557  and  _560
REMARK  236  A    between atoms: _560  and  _561
REMARK  237  A    between atoms: _564  and  _566
REMARK  238  A    between atoms: _566  and  _567
REMARK  239  A    between atoms: _566  and  _569
REMARK  240  A    between atoms: _569  and  _570
REMARK  241  A    between atoms: _575  and  _577
REMARK  242  A    between atoms: _577  and  _578
REMARK  243  A    between atoms: _577  and  _580
REMARK  244  A    between atoms: _580  and  _581
REMARK  245  A    between atoms: _584  and  _586
REMARK  246  A    between atoms: _586  and  _587
REMARK  247  A    between atoms: _586  and  _589
REMARK  248  A    between atoms: _589  and  _590
REMARK  249  A    between atoms: _590  and  _591
REMARK  250  A    between atoms: _596  and  _598
REMARK  251  A    between atoms: _598  and  _599
REMARK  252  A    between atoms: _601  and  _603
REMARK  253  A    between atoms: _603  and  _604
REMARK  254  A    between atoms: _603  and  _606
REMARK  255  A    between atoms: _606  and  _607
REMARK  256  A    between atoms: _612  and  _614
REMARK  257  A    between atoms: _614  and  _615
REMARK  258  A    between atoms: _614  and  _617
REMARK  259  A    between atoms: _617  and  _618
REMARK  260  A    between atoms: _621  and  _623
REMARK  261  A    between atoms: _623  and  _624
REMARK  262  A    between atoms: _623  and  _626
REMARK  263  A    between atoms: _626  and  _627
REMARK                            x       y       z     vdW  Elec       q    Type
REMARK                         _______ _______ _______ _____ _____    ______ ____
ROOT
ATOM      1  O   HOH     1      80.826  79.110 187.719  0.00  0.00    +0.000 OA
ENDROOT
TORSDOF 0
REMARK  Name = ../refined-set-2016/3d2e/3d2e_pocket.pdb
REMARK  263 active torsions:
REMARK  status: ('A' for Active; 'I' for Inactive)
REMARK    1  A    between atoms: _1  and  _3
REMARK    2  A    between atoms: _3  and  _4
REMARK    3  A    between atoms: _3  and  _6
REMARK    4  A    between atoms: _6  and  _7
REMARK    5  A    between atoms: _10  and  _12
REMARK    6  A    between atoms: _12  and  _13
REMARK    7  A    between atoms: _12  and  _15
REMARK    8  A    between atoms: _15  and  _16
REMARK    9  A    between atoms: _19  and  _21
REMARK   10  A    between atoms: _21  and  _22
REMARK   11  A    between atoms: _24  and  _26
REMARK   12  A    between atoms: _26  and  _27
REMARK   13  A    between atoms: _26  and  _29
REMARK   14  A    between atoms: _29  and  _30
REMARK   15  A    between atoms: _35  and  _37
REMARK   16  A    between atoms: _37  and  _38
REMARK   17  A    between atoms: _37  and  _40
REMARK   18  A    between atoms: _40  and  _41
REMARK   19  A    between atoms: _46  and  _48
REMARK   20  A    between atoms: _48  and  _49
REMARK   21  A    between atoms: _48  and  _51
REMARK   22  A    between atoms: _51  and  _52
REMARK   23  A    between atoms: _57  and  _59
REMARK   24  A    between atoms: _59  and  _60
REMARK   25  A    between atoms: _59  and  _62
REMARK   26  A    between atoms: _62  and  _63
REMARK   27  A    between atoms: _65  and  _67
REMARK   28  A    between atoms: _67  and  _68
REMARK   29  A    between atoms: _67  and  _70
REMARK   30  A    between atoms: _73  and  _75
REMARK   31  A    between atoms: _75  and  _76
REMARK   32  A    between atoms: _75  and  _78
REMARK   33  A    between atoms: _78  and  _79
REMARK   34  A    between atoms: _81  and  _83
REMARK   35  A    between atoms: _83  and  _84
REMARK   36  A    between atoms: _83  and  _86
REMARK   37  A    between atoms: _86  and  _87
REMARK   38  A    between atoms: _90  and  _92
REMARK   39  A    between atoms: _92  and  _93
REMARK   40  A    between atoms: _92  and  _95
REMARK   41  A    between atoms: _95  and  _96
REMARK   42  A    between atoms: _98  and  _100
REMARK   43  A    between atoms: _100  and  _101
REMARK   44  A    between atoms: _100  and  _103
REMARK   45  A    between atoms: _103  and  _104
REMARK   46  A    between atoms: _104  and  _105
REMARK   47  A    between atoms: _105  and  _106
REMARK   48  A    between atoms: _106  and  _107
REMARK   49  A    between atoms: _111  and  _113
REMARK   50  A    between atoms: _113  and  _114
REMARK   51  A    between atoms: _113  and  _116
REMARK   52  A    between atoms: _116  and  _117
REMARK   53  A    between atoms: _117  and  _118
REMARK   54  A    between atoms: _118  and  _119
REMARK   55  A    between atoms: _128  and  _130
REMARK   56  A    between atoms: _130  and  _131
REMARK   57  A    between atoms: _134  and  _136
REMARK   58  A    between atoms: _136  and  _137
REMARK   59  A    between atoms: _136  and  _139
REMARK   60  A    between atoms: _143  and  _144
REMARK   61  A    between atoms: _149  and  _151
REMARK   62  A    between atoms: _151  and  _152
REMARK   63  A    between atoms: _151  and  _154
REMARK   64  A    between atoms: _154  and  _155
REMARK   65  A    between atoms: _165  and  _167
REMARK   66  A    between atoms: _167  and  _168
REMARK   67  A    between atoms: _167  and  _170
REMARK   68  A    between atoms: _170  and  _171
REMARK   69  A    between atoms: _174  and  _176
REMARK   70  A    between atoms: _176  and  _177
REMARK   71  A    between atoms: _176  and  _179
REMARK   72  A    between atoms: _179  and  _180
REMARK   73  A    between atoms: _183  and  _185
REMARK   74  A    between atoms: _185  and  _186
REMARK   75  A    between atoms: _185  and  _188
REMARK   76  A    between atoms: _188  and  _189
REMARK   77  A    between atoms: _192  and  _194
REMARK   78  A    between atoms: _194  and  _195
REMARK   79  A    between atoms: _197  and  _199
REMARK   80  A    between atoms: _199  and  _200
REMARK   81  A    between atoms: _199  and  _202
REMARK   82  A    between atoms: _202  and  _203
REMARK   83  A    between atoms: _208  and  _210
REMARK   84  A    between atoms: _210  and  _211
REMARK   85  A    between atoms: _210  and  _213
REMARK   86  A    between atoms: _213  and  _214
REMARK   87  A    between atoms: _216  and  _218
REMARK   88  A    between atoms: _218  and  _219
REMARK   89  A    between atoms: _218  and  _221
REMARK   90  A    between atoms: _221  and  _222
REMARK   91  A    between atoms: _224  and  _226
REMARK   92  A    between atoms: _226  and  _227
REMARK   93  A    between atoms: _226  and  _229
REMARK   94  A    between atoms: _229  and  _230
REMARK   95  A    between atoms: _235  and  _236
REMARK   96  A    between atoms: _238  and  _240
REMARK   97  A    between atoms: _240  and  _241
REMARK   98  A    between atoms: _240  and  _243
REMARK   99  A    between atoms: _243  and  _244
REMARK  100  A    between atoms: _247  and  _249
REMARK  101  A    between atoms: _249  and  _250
REMARK  102  A    between atoms: _249  and  _252
REMARK  103  A    between atoms: _252  and  _253
REMARK  104  A    between atoms: _256  and  _258
REMARK  105  A    between atoms: _258  and  _259
REMARK  106  A    between atoms: _258  and  _261
REMARK  107  A    between atoms: _261  and  _262
REMARK  108  A    between atoms: _262  and  _263
REMARK  109  A    between atoms: _263  and  _264
REMARK  110  A    between atoms: _264  and  _265
REMARK  111  A    between atoms: _269  and  _271
REMARK  112  A    between atoms: _271  and  _272
REMARK  113  A    between atoms: _271  and  _274
REMARK  114  A    between atoms: _274  and  _275
REMARK  115  A    between atoms: _281  and  _283
REMARK  116  A    between atoms: _283  and  _284
REMARK  117  A    between atoms: _286  and  _288
REMARK  118  A    between atoms: _288  and  _289
REMARK  119  A    between atoms: _291  and  _293
REMARK  120  A    between atoms: _293  and  _294
REMARK  121  A    between atoms: _293  and  _296
REMARK  122  A    between atoms: _296  and  _297
REMARK  123  A    between atoms: _297  and  _298
REMARK  124  A    between atoms: _298  and  _299
REMARK  125  A    between atoms: _308  and  _310
REMARK  126  A    between atoms: _310  and  _311
REMARK  127  A    between atoms: _310  and  _313
REMARK  128  A    between atoms: _313  and  _314
REMARK  129  A    between atoms: _317  and  _319
REMARK  130  A    between atoms: _319  and  _320
REMARK  131  A    between atoms: _319  and  _322
REMARK  132  A    between atoms: _322  and  _323
REMARK  133  A    between atoms: _329  and  _331
REMARK  134  A    between atoms: _331  and  _332
REMARK  135  A    between atoms: _331  and  _334
REMARK  136  A    between atoms: _334  and  _335
REMARK  137  A    between atoms: _338  and  _340
REMARK  138  A    between atoms: _340  and  _341
REMARK  139  A    between atoms: _344  and  _346
REMARK  140  A    between atoms: _346  and  _347
REMARK  141  A    between atoms: _346  and  _349
REMARK  142  A    between atoms: _349  and  _350
REMARK  143  A    between atoms: _350  and  _351
REMARK  144  A    between atoms: _354  and  _356
REMARK  145  A    between atoms: _356  and  _357
REMARK  146  A    between atoms: _356  and  _359
REMARK  147  A    between atoms: _359  and  _360
REMARK  148  A    between atoms: _360  and  _361
REMARK  149  A    between atoms: _361  and  _362
REMARK  150  A    between atoms: _362  and  _363
REMARK  151  A    between atoms: _367  and  _369
REMARK  152  A    between atoms: _369  and  _370
REMARK  153  A    between atoms: _369  and  _372
REMARK  154  A    between atoms: _372  and  _373
REMARK  155  A    between atoms: _376  and  _378
REMARK  156  A    between atoms: _378  and  _379
REMARK  157  A    between atoms: _378  and  _381
REMARK  158  A    between atoms: _381  and  _382
REMARK  159  A    between atoms: _382  and  _383
REMARK  160  A    between atoms: _383  and  _384
REMARK  161  A    between atoms: _384  and  _385
REMARK  162  A    between atoms: _389  and  _391
REMARK  163  A    between atoms: _391  and  _392
REMARK  164  A    between atoms: _391  and  _394
REMARK  165  A    between atoms: _394  and  _395
REMARK  166  A    between atoms: _395  and  _396
REMARK  167  A    between atoms: _396  and  _397
REMARK  168  A    between atoms: _397  and  _398
REMARK  169  A    between atoms: _402  and  _404
REMARK  170  A    between atoms: _404  and  _405
REMARK  171  A    between atoms: _404  and  _407
REMARK  172  A    between atoms: _410  and  _412
REMARK  173  A    between atoms: _412  and  _413
REMARK  174  A    between atoms: _412  and  _415
REMARK  175  A    between atoms: _415  and  _416
REMARK  176  A    between atoms: _419  and  _421
REMARK  177  A    between atoms: _421  and  _422
REMARK  178  A    between atoms: _421  and  _424
REMARK  179  A    between atoms: _424  and  _425
REMARK  180  A    between atoms: _427  and  _429
REMARK  181  A    between atoms: _429  and  _430
REMARK  182  A    between atoms: _433  and  _435
REMARK  183  A    between atoms: _435  and  _436
REMARK  184  A    between atoms: _435  and  _438
REMARK  185  A    between atoms: _438  and  _439
REMARK  186  A    between atoms: _442  and  _444
REMARK  187  A    between atoms: _444  and  _445
REMARK  188  A    between atoms: _444  and  _447
REMARK  189  A    between atoms: _447  and  _448
REMARK  190  A    between atoms: _451  and  _453
REMARK  191  A    between atoms: _453  and  _454
REMARK  192  A    between atoms: _456  and  _458
REMARK  193  A    between atoms: _458  and  _459
REMARK  194  A    between atoms: _461  and  _463
REMARK  195  A    between atoms: _463  and  _464
REMARK  196  A    between atoms: _463  and  _466
REMARK  197  A    between atoms: _466  and  _467
REMARK  198  A    between atoms: _470  and  _472
REMARK  199  A    between atoms: _472  and  _473
REMARK  200  A    between atoms: _472  and  _475
REMARK  201  A    between atoms: _475  and  _476
REMARK  202  A    between atoms: _479  and  _481
REMARK  203  A    between atoms: _481  and  _482
REMARK  204  A    between atoms: _481  and  _484
REMARK  205  A    between atoms: _484  and  _485
REMARK  206  A    between atoms: _485  and  _486
REMARK  207  A    between atoms: _486  and  _487
REMARK  208  A    between atoms: _496  and  _498
REMARK  209  A    between atoms: _498  and  _499
REMARK  210  A    between atoms: _498  and  _501
REMARK  211  A    between atoms: _501  and  _502
REMARK  212  A    between atoms: _506  and  _507
REMARK  213  A    between atoms: _512  and  _514
REMARK  214  A    between atoms: _514  and  _515
REMARK  215  A    between atoms: _514  and  _517
REMARK  216  A    between atoms: _517  and  _518
REMARK  217  A    between atoms: _521  and  _523
REMARK  218  A    between atoms: _523  and  _524
REMARK  219  A    between atoms: _523  and  _526
REMARK  220  A    between atoms: _526  and  _527
REMARK  221  A    between atoms: _527  and  _528
REMARK  222  A    between atoms: _528  and  _529
REMARK  223  A    between atoms: _529  and  _530
REMARK  224  A    between atoms: _534  and  _536
REMARK  225  A    between atoms: _536  and  _537
REMARK  226  A    between atoms: _536  and  _539
REMARK  227  A    between atoms: _539  and  _540
REMARK  228  A    between atoms: _540  and  _541
REMARK  229  A    between atoms: _546  and  _548
REMARK  230  A    between atoms: _548  and  _549
REMARK  231  A    between atoms: _548  and  _551
REMARK  232  A    between atoms: _551  and  _552
REMARK  233  A    between atoms: _555  and  _557
REMARK  234  A    between atoms: _557  and  _558
REMARK  235  A    between atoms: _557  and  _560
REMARK  236  A    between atoms: _560  and  _561
REMARK  237  A    between atoms: _564  and  _566
REMARK  238  A    between atoms: _566  and  _567
REMARK  239  A    between atoms: _566  and  _569
REMARK  240  A    between atoms: _569  and  _570
REMARK  241  A    between atoms: _575  and  _577
REMARK  242  A    between atoms: _577  and  _578
REMARK  243  A    between atoms: _577  and  _580
REMARK  244  A    between atoms: _580  and  _581
REMARK  245  A    between atoms: _584  and  _586
REMARK  246  A    between atoms: _586  and  _587
REMARK  247  A    between atoms: _586  and  _589
REMARK  248  A    between atoms: _589  and  _590
REMARK  249  A    between atoms: _590  and  _591
REMARK  250  A    between atoms: _596  and  _598
REMARK  251  A    between atoms: _598  and  _599
REMARK  252  A    between atoms: _601  and  _603
REMARK  253  A    between atoms: _603  and  _604
REMARK  254  A    between atoms: _603  and  _606
REMARK  255  A    between atoms: _606  and  _607
REMARK  256  A    between atoms: _612  and  _614
REMARK  257  A    between atoms: _614  and  _615
REMARK  258  A    between atoms: _614  and  _617
REMARK  259  A    between atoms: _617  and  _618
REMARK  260  A    between atoms: _621  and  _623
REMARK  261  A    between atoms: _623  and  _624
REMARK  262  A    between atoms: _623  and  _626
REMARK  263  A    between atoms: _626  and  _627
REMARK                            x       y       z     vdW  Elec       q    Type
REMARK                         _______ _______ _______ _____ _____    ______ ____
ROOT
ATOM      1  O   HOH     1      79.533  78.305 184.718  0.00  0.00    +0.000 OA
ENDROOT
TORSDOF 0
REMARK  Name = ../refined-set-2016/3d2e/3d2e_pocket.pdb
REMARK  263 active torsions:
REMARK  status: ('A' for Active; 'I' for Inactive)
REMARK    1  A    between atoms: _1  and  _3
REMARK    2  A    between atoms: _3  and  _4
REMARK    3  A    between atoms: _3  and  _6
REMARK    4  A    between atoms: _6  and  _7
REMARK    5  A    between atoms: _10  and  _12
REMARK    6  A    between atoms: _12  and  _13
REMARK    7  A    between atoms: _12  and  _15
REMARK    8  A    between atoms: _15  and  _16
REMARK    9  A    between atoms: _19  and  _21
REMARK   10  A    between atoms: _21  and  _22
REMARK   11  A    between atoms: _24  and  _26
REMARK   12  A    between atoms: _26  and  _27
REMARK   13  A    between atoms: _26  and  _29
REMARK   14  A    between atoms: _29  and  _30
REMARK   15  A    between atoms: _35  and  _37
REMARK   16  A    between atoms: _37  and  _38
REMARK   17  A    between atoms: _37  and  _40
REMARK   18  A    between atoms: _40  and  _41
REMARK   19  A    between atoms: _46  and  _48
REMARK   20  A    between atoms: _48  and  _49
REMARK   21  A    between atoms: _48  and  _51
REMARK   22  A    between atoms: _51  and  _52
REMARK   23  A    between atoms: _57  and  _59
REMARK   24  A    between atoms: _59  and  _60
REMARK   25  A    between atoms: _59  and  _62
REMARK   26  A    between atoms: _62  and  _63
REMARK   27  A    between atoms: _65  and  _67
REMARK   28  A    between atoms: _67  and  _68
REMARK   29  A    between atoms: _67  and  _70
REMARK   30  A    between atoms: _73  and  _75
REMARK   31  A    between atoms: _75  and  _76
REMARK   32  A    between atoms: _75  and  _78
REMARK   33  A    between atoms: _78  and  _79
REMARK   34  A    between atoms: _81  and  _83
REMARK   35  A    between atoms: _83  and  _84
REMARK   36  A    between atoms: _83  and  _86
REMARK   37  A    between atoms: _86  and  _87
REMARK   38  A    between atoms: _90  and  _92
REMARK   39  A    between atoms: _92  and  _93
REMARK   40  A    between atoms: _92  and  _95
REMARK   41  A    between atoms: _95  and  _96
REMARK   42  A    between atoms: _98  and  _100
REMARK   43  A    between atoms: _100  and  _101
REMARK   44  A    between atoms: _100  and  _103
REMARK   45  A    between atoms: _103  and  _104
REMARK   46  A    between atoms: _104  and  _105
REMARK   47  A    between atoms: _105  and  _106
REMARK   48  A    between atoms: _106  and  _107
REMARK   49  A    between atoms: _111  and  _113
REMARK   50  A    between atoms: _113  and  _114
REMARK   51  A    between atoms: _113  and  _116
REMARK   52  A    between atoms: _116  and  _117
REMARK   53  A    between atoms: _117  and  _118
REMARK   54  A    between atoms: _118  and  _119
REMARK   55  A    between atoms: _128  and  _130
REMARK   56  A    between atoms: _130  and  _131
REMARK   57  A    between atoms: _134  and  _136
REMARK   58  A    between atoms: _136  and  _137
REMARK   59  A    between atoms: _136  and  _139
REMARK   60  A    between atoms: _143  and  _144
REMARK   61  A    between atoms: _149  and  _151
REMARK   62  A    between atoms: _151  and  _152
REMARK   63  A    between atoms: _151  and  _154
REMARK   64  A    between atoms: _154  and  _155
REMARK   65  A    between atoms: _165  and  _167
REMARK   66  A    between atoms: _167  and  _168
REMARK   67  A    between atoms: _167  and  _170
REMARK   68  A    between atoms: _170  and  _171
REMARK   69  A    between atoms: _174  and  _176
REMARK   70  A    between atoms: _176  and  _177
REMARK   71  A    between atoms: _176  and  _179
REMARK   72  A    between atoms: _179  and  _180
REMARK   73  A    between atoms: _183  and  _185
REMARK   74  A    between atoms: _185  and  _186
REMARK   75  A    between atoms: _185  and  _188
REMARK   76  A    between atoms: _188  and  _189
REMARK   77  A    between atoms: _192  and  _194
REMARK   78  A    between atoms: _194  and  _195
REMARK   79  A    between atoms: _197  and  _199
REMARK   80  A    between atoms: _199  and  _200
REMARK   81  A    between atoms: _199  and  _202
REMARK   82  A    between atoms: _202  and  _203
REMARK   83  A    between atoms: _208  and  _210
REMARK   84  A    between atoms: _210  and  _211
REMARK   85  A    between atoms: _210  and  _213
REMARK   86  A    between atoms: _213  and  _214
REMARK   87  A    between atoms: _216  and  _218
REMARK   88  A    between atoms: _218  and  _219
REMARK   89  A    between atoms: _218  and  _221
REMARK   90  A    between atoms: _221  and  _222
REMARK   91  A    between atoms: _224  and  _226
REMARK   92  A    between atoms: _226  and  _227
REMARK   93  A    between atoms: _226  and  _229
REMARK   94  A    between atoms: _229  and  _230
REMARK   95  A    between atoms: _235  and  _236
REMARK   96  A    between atoms: _238  and  _240
REMARK   97  A    between atoms: _240  and  _241
REMARK   98  A    between atoms: _240  and  _243
REMARK   99  A    between atoms: _243  and  _244
REMARK  100  A    between atoms: _247  and  _249
REMARK  101  A    between atoms: _249  and  _250
REMARK  102  A    between atoms: _249  and  _252
REMARK  103  A    between atoms: _252  and  _253
REMARK  104  A    between atoms: _256  and  _258
REMARK  105  A    between atoms: _258  and  _259
REMARK  106  A    between atoms: _258  and  _261
REMARK  107  A    between atoms: _261  and  _262
REMARK  108  A    between atoms: _262  and  _263
REMARK  109  A    between atoms: _263  and  _264
REMARK  110  A    between atoms: _264  and  _265
REMARK  111  A    between atoms: _269  and  _271
REMARK  112  A    between atoms: _271  and  _272
REMARK  113  A    between atoms: _271  and  _274
REMARK  114  A    between atoms: _274  and  _275
REMARK  115  A    between atoms: _281  and  _283
REMARK  116  A    between atoms: _283  and  _284
REMARK  117  A    between atoms: _286  and  _288
REMARK  118  A    between atoms: _288  and  _289
REMARK  119  A    between atoms: _291  and  _293
REMARK  120  A    between atoms: _293  and  _294
REMARK  121  A    between atoms: _293  and  _296
REMARK  122  A    between atoms: _296  and  _297
REMARK  123  A    between atoms: _297  and  _298
REMARK  124  A    between atoms: _298  and  _299
REMARK  125  A    between atoms: _308  and  _310
REMARK  126  A    between atoms: _310  and  _311
REMARK  127  A    between atoms: _310  and  _313
REMARK  128  A    between atoms: _313  and  _314
REMARK  129  A    between atoms: _317  and  _319
REMARK  130  A    between atoms: _319  and  _320
REMARK  131  A    between atoms: _319  and  _322
REMARK  132  A    between atoms: _322  and  _323
REMARK  133  A    between atoms: _329  and  _331
REMARK  134  A    between atoms: _331  and  _332
REMARK  135  A    between atoms: _331  and  _334
REMARK  136  A    between atoms: _334  and  _335
REMARK  137  A    between atoms: _338  and  _340
REMARK  138  A    between atoms: _340  and  _341
REMARK  139  A    between atoms: _344  and  _346
REMARK  140  A    between atoms: _346  and  _347
REMARK  141  A    between atoms: _346  and  _349
REMARK  142  A    between atoms: _349  and  _350
REMARK  143  A    between atoms: _350  and  _351
REMARK  144  A    between atoms: _354  and  _356
REMARK  145  A    between atoms: _356  and  _357
REMARK  146  A    between atoms: _356  and  _359
REMARK  147  A    between atoms: _359  and  _360
REMARK  148  A    between atoms: _360  and  _361
REMARK  149  A    between atoms: _361  and  _362
REMARK  150  A    between atoms: _362  and  _363
REMARK  151  A    between atoms: _367  and  _369
REMARK  152  A    between atoms: _369  and  _370
REMARK  153  A    between atoms: _369  and  _372
REMARK  154  A    between atoms: _372  and  _373
REMARK  155  A    between atoms: _376  and  _378
REMARK  156  A    between atoms: _378  and  _379
REMARK  157  A    between atoms: _378  and  _381
REMARK  158  A    between atoms: _381  and  _382
REMARK  159  A    between atoms: _382  and  _383
REMARK  160  A    between atoms: _383  and  _384
REMARK  161  A    between atoms: _384  and  _385
REMARK  162  A    between atoms: _389  and  _391
REMARK  163  A    between atoms: _391  and  _392
REMARK  164  A    between atoms: _391  and  _394
REMARK  165  A    between atoms: _394  and  _395
REMARK  166  A    between atoms: _395  and  _396
REMARK  167  A    between atoms: _396  and  _397
REMARK  168  A    between atoms: _397  and  _398
REMARK  169  A    between atoms: _402  and  _404
REMARK  170  A    between atoms: _404  and  _405
REMARK  171  A    between atoms: _404  and  _407
REMARK  172  A    between atoms: _410  and  _412
REMARK  173  A    between atoms: _412  and  _413
REMARK  174  A    between atoms: _412  and  _415
REMARK  175  A    between atoms: _415  and  _416
REMARK  176  A    between atoms: _419  and  _421
REMARK  177  A    between atoms: _421  and  _422
REMARK  178  A    between atoms: _421  and  _424
REMARK  179  A    between atoms: _424  and  _425
REMARK  180  A    between atoms: _427  and  _429
REMARK  181  A    between atoms: _429  and  _430
REMARK  182  A    between atoms: _433  and  _435
REMARK  183  A    between atoms: _435  and  _436
REMARK  184  A    between atoms: _435  and  _438
REMARK  185  A    between atoms: _438  and  _439
REMARK  186  A    between atoms: _442  and  _444
REMARK  187  A    between atoms: _444  and  _445
REMARK  188  A    between atoms: _444  and  _447
REMARK  189  A    between atoms: _447  and  _448
REMARK  190  A    between atoms: _451  and  _453
REMARK  191  A    between atoms: _453  and  _454
REMARK  192  A    between atoms: _456  and  _458
REMARK  193  A    between atoms: _458  and  _459
REMARK  194  A    between atoms: _461  and  _463
REMARK  195  A    between atoms: _463  and  _464
REMARK  196  A    between atoms: _463  and  _466
REMARK  197  A    between atoms: _466  and  _467
REMARK  198  A    between atoms: _470  and  _472
REMARK  199  A    between atoms: _472  and  _473
REMARK  200  A    between atoms: _472  and  _475
REMARK  201  A    between atoms: _475  and  _476
REMARK  202  A    between atoms: _479  and  _481
REMARK  203  A    between atoms: _481  and  _482
REMARK  204  A    between atoms: _481  and  _484
REMARK  205  A    between atoms: _484  and  _485
REMARK  206  A    between atoms: _485  and  _486
REMARK  207  A    between atoms: _486  and  _487
REMARK  208  A    between atoms: _496  and  _498
REMARK  209  A    between atoms: _498  and  _499
REMARK  210  A    between atoms: _498  and  _501
REMARK  211  A    between atoms: _501  and  _502
REMARK  212  A    between atoms: _506  and  _507
REMARK  213  A    between atoms: _512  and  _514
REMARK  214  A    between atoms: _514  and  _515
REMARK  215  A    between atoms: _514  and  _517
REMARK  216  A    between atoms: _517  and  _518
REMARK  217  A    between atoms: _521  and  _523
REMARK  218  A    between atoms: _523  and  _524
REMARK  219  A    between atoms: _523  and  _526
REMARK  220  A    between atoms: _526  and  _527
REMARK  221  A    between atoms: _527  and  _528
REMARK  222  A    between atoms: _528  and  _529
REMARK  223  A    between atoms: _529  and  _530
REMARK  224  A    between atoms: _534  and  _536
REMARK  225  A    between atoms: _536  and  _537
REMARK  226  A    between atoms: _536  and  _539
REMARK  227  A    between atoms: _539  and  _540
REMARK  228  A    between atoms: _540  and  _541
REMARK  229  A    between atoms: _546  and  _548
REMARK  230  A    between atoms: _548  and  _549
REMARK  231  A    between atoms: _548  and  _551
REMARK  232  A    between atoms: _551  and  _552
REMARK  233  A    between atoms: _555  and  _557
REMARK  234  A    between atoms: _557  and  _558
REMARK  235  A    between atoms: _557  and  _560
REMARK  236  A    between atoms: _560  and  _561
REMARK  237  A    between atoms: _564  and  _566
REMARK  238  A    between atoms: _566  and  _567
REMARK  239  A    between atoms: _566  and  _569
REMARK  240  A    between atoms: _569  and  _570
REMARK  241  A    between atoms: _575  and  _577
REMARK  242  A    between atoms: _577  and  _578
REMARK  243  A    between atoms: _577  and  _580
REMARK  244  A    between atoms: _580  and  _581
REMARK  245  A    between atoms: _584  and  _586
REMARK  246  A    between atoms: _586  and  _587
REMARK  247  A    between atoms: _586  and  _589
REMARK  248  A    between atoms: _589  and  _590
REMARK  249  A    between atoms: _590  and  _591
REMARK  250  A    between atoms: _596  and  _598
REMARK  251  A    between atoms: _598  and  _599
REMARK  252  A    between atoms: _601  and  _603
REMARK  253  A    between atoms: _603  and  _604
REMARK  254  A    between atoms: _603  and  _606
REMARK  255  A    between atoms: _606  and  _607
REMARK  256  A    between atoms: _612  and  _614
REMARK  257  A    between atoms: _614  and  _615
REMARK  258  A    between atoms: _614  and  _617
REMARK  259  A    between atoms: _617  and  _618
REMARK  260  A    between atoms: _621  and  _623
REMARK  261  A    between atoms: _623  and  _624
REMARK  262  A    between atoms: _623  and  _626
REMARK  263  A    between atoms: _626  and  _627
REMARK                            x       y       z     vdW  Elec       q    Type
REMARK                         _______ _______ _______ _____ _____    ______ ____
ROOT
ATOM      1  O   HOH     1      81.300  77.681 182.948  0.00  0.00    +0.000 OA
ENDROOT
TORSDOF 0
REMARK  Name = ../refined-set-2016/3d2e/3d2e_pocket.pdb
REMARK  263 active torsions:
REMARK  status: ('A' for Active; 'I' for Inactive)
REMARK    1  A    between atoms: _1  and  _3
REMARK    2  A    between atoms: _3  and  _4
REMARK    3  A    between atoms: _3  and  _6
REMARK    4  A    between atoms: _6  and  _7
REMARK    5  A    between atoms: _10  and  _12
REMARK    6  A    between atoms: _12  and  _13
REMARK    7  A    between atoms: _12  and  _15
REMARK    8  A    between atoms: _15  and  _16
REMARK    9  A    between atoms: _19  and  _21
REMARK   10  A    between atoms: _21  and  _22
REMARK   11  A    between atoms: _24  and  _26
REMARK   12  A    between atoms: _26  and  _27
REMARK   13  A    between atoms: _26  and  _29
REMARK   14  A    between atoms: _29  and  _30
REMARK   15  A    between atoms: _35  and  _37
REMARK   16  A    between atoms: _37  and  _38
REMARK   17  A    between atoms: _37  and  _40
REMARK   18  A    between atoms: _40  and  _41
REMARK   19  A    between atoms: _46  and  _48
REMARK   20  A    between atoms: _48  and  _49
REMARK   21  A    between atoms: _48  and  _51
REMARK   22  A    between atoms: _51  and  _52
REMARK   23  A    between atoms: _57  and  _59
REMARK   24  A    between atoms: _59  and  _60
REMARK   25  A    between atoms: _59  and  _62
REMARK   26  A    between atoms: _62  and  _63
REMARK   27  A    between atoms: _65  and  _67
REMARK   28  A    between atoms: _67  and  _68
REMARK   29  A    between atoms: _67  and  _70
REMARK   30  A    between atoms: _73  and  _75
REMARK   31  A    between atoms: _75  and  _76
REMARK   32  A    between atoms: _75  and  _78
REMARK   33  A    between atoms: _78  and  _79
REMARK   34  A    between atoms: _81  and  _83
REMARK   35  A    between atoms: _83  and  _84
REMARK   36  A    between atoms: _83  and  _86
REMARK   37  A    between atoms: _86  and  _87
REMARK   38  A    between atoms: _90  and  _92
REMARK   39  A    between atoms: _92  and  _93
REMARK   40  A    between atoms: _92  and  _95
REMARK   41  A    between atoms: _95  and  _96
REMARK   42  A    between atoms: _98  and  _100
REMARK   43  A    between atoms: _100  and  _101
REMARK   44  A    between atoms: _100  and  _103
REMARK   45  A    between atoms: _103  and  _104
REMARK   46  A    between atoms: _104  and  _105
REMARK   47  A    between atoms: _105  and  _106
REMARK   48  A    between atoms: _106  and  _107
REMARK   49  A    between atoms: _111  and  _113
REMARK   50  A    between atoms: _113  and  _114
REMARK   51  A    between atoms: _113  and  _116
REMARK   52  A    between atoms: _116  and  _117
REMARK   53  A    between atoms: _117  and  _118
REMARK   54  A    between atoms: _118  and  _119
REMARK   55  A    between atoms: _128  and  _130
REMARK   56  A    between atoms: _130  and  _131
REMARK   57  A    between atoms: _134  and  _136
REMARK   58  A    between atoms: _136  and  _137
REMARK   59  A    between atoms: _136  and  _139
REMARK   60  A    between atoms: _143  and  _144
REMARK   61  A    between atoms: _149  and  _151
REMARK   62  A    between atoms: _151  and  _152
REMARK   63  A    between atoms: _151  and  _154
REMARK   64  A    between atoms: _154  and  _155
REMARK   65  A    between atoms: _165  and  _167
REMARK   66  A    between atoms: _167  and  _168
REMARK   67  A    between atoms: _167  and  _170
REMARK   68  A    between atoms: _170  and  _171
REMARK   69  A    between atoms: _174  and  _176
REMARK   70  A    between atoms: _176  and  _177
REMARK   71  A    between atoms: _176  and  _179
REMARK   72  A    between atoms: _179  and  _180
REMARK   73  A    between atoms: _183  and  _185
REMARK   74  A    between atoms: _185  and  _186
REMARK   75  A    between atoms: _185  and  _188
REMARK   76  A    between atoms: _188  and  _189
REMARK   77  A    between atoms: _192  and  _194
REMARK   78  A    between atoms: _194  and  _195
REMARK   79  A    between atoms: _197  and  _199
REMARK   80  A    between atoms: _199  and  _200
REMARK   81  A    between atoms: _199  and  _202
REMARK   82  A    between atoms: _202  and  _203
REMARK   83  A    between atoms: _208  and  _210
REMARK   84  A    between atoms: _210  and  _211
REMARK   85  A    between atoms: _210  and  _213
REMARK   86  A    between atoms: _213  and  _214
REMARK   87  A    between atoms: _216  and  _218
REMARK   88  A    between atoms: _218  and  _219
REMARK   89  A    between atoms: _218  and  _221
REMARK   90  A    between atoms: _221  and  _222
REMARK   91  A    between atoms: _224  and  _226
REMARK   92  A    between atoms: _226  and  _227
REMARK   93  A    between atoms: _226  and  _229
REMARK   94  A    between atoms: _229  and  _230
REMARK   95  A    between atoms: _235  and  _236
REMARK   96  A    between atoms: _238  and  _240
REMARK   97  A    between atoms: _240  and  _241
REMARK   98  A    between atoms: _240  and  _243
REMARK   99  A    between atoms: _243  and  _244
REMARK  100  A    between atoms: _247  and  _249
REMARK  101  A    between atoms: _249  and  _250
REMARK  102  A    between atoms: _249  and  _252
REMARK  103  A    between atoms: _252  and  _253
REMARK  104  A    between atoms: _256  and  _258
REMARK  105  A    between atoms: _258  and  _259
REMARK  106  A    between atoms: _258  and  _261
REMARK  107  A    between atoms: _261  and  _262
REMARK  108  A    between atoms: _262  and  _263
REMARK  109  A    between atoms: _263  and  _264
REMARK  110  A    between atoms: _264  and  _265
REMARK  111  A    between atoms: _269  and  _271
REMARK  112  A    between atoms: _271  and  _272
REMARK  113  A    between atoms: _271  and  _274
REMARK  114  A    between atoms: _274  and  _275
REMARK  115  A    between atoms: _281  and  _283
REMARK  116  A    between atoms: _283  and  _284
REMARK  117  A    between atoms: _286  and  _288
REMARK  118  A    between atoms: _288  and  _289
REMARK  119  A    between atoms: _291  and  _293
REMARK  120  A    between atoms: _293  and  _294
REMARK  121  A    between atoms: _293  and  _296
REMARK  122  A    between atoms: _296  and  _297
REMARK  123  A    between atoms: _297  and  _298
REMARK  124  A    between atoms: _298  and  _299
REMARK  125  A    between atoms: _308  and  _310
REMARK  126  A    between atoms: _310  and  _311
REMARK  127  A    between atoms: _310  and  _313
REMARK  128  A    between atoms: _313  and  _314
REMARK  129  A    between atoms: _317  and  _319
REMARK  130  A    between atoms: _319  and  _320
REMARK  131  A    between atoms: _319  and  _322
REMARK  132  A    between atoms: _322  and  _323
REMARK  133  A    between atoms: _329  and  _331
REMARK  134  A    between atoms: _331  and  _332
REMARK  135  A    between atoms: _331  and  _334
REMARK  136  A    between atoms: _334  and  _335
REMARK  137  A    between atoms: _338  and  _340
REMARK  138  A    between atoms: _340  and  _341
REMARK  139  A    between atoms: _344  and  _346
REMARK  140  A    between atoms: _346  and  _347
REMARK  141  A    between atoms: _346  and  _349
REMARK  142  A    between atoms: _349  and  _350
REMARK  143  A    between atoms: _350  and  _351
REMARK  144  A    between atoms: _354  and  _356
REMARK  145  A    between atoms: _356  and  _357
REMARK  146  A    between atoms: _356  and  _359
REMARK  147  A    between atoms: _359  and  _360
REMARK  148  A    between atoms: _360  and  _361
REMARK  149  A    between atoms: _361  and  _362
REMARK  150  A    between atoms: _362  and  _363
REMARK  151  A    between atoms: _367  and  _369
REMARK  152  A    between atoms: _369  and  _370
REMARK  153  A    between atoms: _369  and  _372
REMARK  154  A    between atoms: _372  and  _373
REMARK  155  A    between atoms: _376  and  _378
REMARK  156  A    between atoms: _378  and  _379
REMARK  157  A    between atoms: _378  and  _381
REMARK  158  A    between atoms: _381  and  _382
REMARK  159  A    between atoms: _382  and  _383
REMARK  160  A    between atoms: _383  and  _384
REMARK  161  A    between atoms: _384  and  _385
REMARK  162  A    between atoms: _389  and  _391
REMARK  163  A    between atoms: _391  and  _392
REMARK  164  A    between atoms: _391  and  _394
REMARK  165  A    between atoms: _394  and  _395
REMARK  166  A    between atoms: _395  and  _396
REMARK  167  A    between atoms: _396  and  _397
REMARK  168  A    between atoms: _397  and  _398
REMARK  169  A    between atoms: _402  and  _404
REMARK  170  A    between atoms: _404  and  _405
REMARK  171  A    between atoms: _404  and  _407
REMARK  172  A    between atoms: _410  and  _412
REMARK  173  A    between atoms: _412  and  _413
REMARK  174  A    between atoms: _412  and  _415
REMARK  175  A    between atoms: _415  and  _416
REMARK  176  A    between atoms: _419  and  _421
REMARK  177  A    between atoms: _421  and  _422
REMARK  178  A    between atoms: _421  and  _424
REMARK  179  A    between atoms: _424  and  _425
REMARK  180  A    between atoms: _427  and  _429
REMARK  181  A    between atoms: _429  and  _430
REMARK  182  A    between atoms: _433  and  _435
REMARK  183  A    between atoms: _435  and  _436
REMARK  184  A    between atoms: _435  and  _438
REMARK  185  A    between atoms: _438  and  _439
REMARK  186  A    between atoms: _442  and  _444
REMARK  187  A    between atoms: _444  and  _445
REMARK  188  A    between atoms: _444  and  _447
REMARK  189  A    between atoms: _447  and  _448
REMARK  190  A    between atoms: _451  and  _453
REMARK  191  A    between atoms: _453  and  _454
REMARK  192  A    between atoms: _456  and  _458
REMARK  193  A    between atoms: _458  and  _459
REMARK  194  A    between atoms: _461  and  _463
REMARK  195  A    between atoms: _463  and  _464
REMARK  196  A    between atoms: _463  and  _466
REMARK  197  A    between atoms: _466  and  _467
REMARK  198  A    between atoms: _470  and  _472
REMARK  199  A    between atoms: _472  and  _473
REMARK  200  A    between atoms: _472  and  _475
REMARK  201  A    between atoms: _475  and  _476
REMARK  202  A    between atoms: _479  and  _481
REMARK  203  A    between atoms: _481  and  _482
REMARK  204  A    between atoms: _481  and  _484
REMARK  205  A    between atoms: _484  and  _485
REMARK  206  A    between atoms: _485  and  _486
REMARK  207  A    between atoms: _486  and  _487
REMARK  208  A    between atoms: _496  and  _498
REMARK  209  A    between atoms: _498  and  _499
REMARK  210  A    between atoms: _498  and  _501
REMARK  211  A    between atoms: _501  and  _502
REMARK  212  A    between atoms: _506  and  _507
REMARK  213  A    between atoms: _512  and  _514
REMARK  214  A    between atoms: _514  and  _515
REMARK  215  A    between atoms: _514  and  _517
REMARK  216  A    between atoms: _517  and  _518
REMARK  217  A    between atoms: _521  and  _523
REMARK  218  A    between atoms: _523  and  _524
REMARK  219  A    between atoms: _523  and  _526
REMARK  220  A    between atoms: _526  and  _527
REMARK  221  A    between atoms: _527  and  _528
REMARK  222  A    between atoms: _528  and  _529
REMARK  223  A    between atoms: _529  and  _530
REMARK  224  A    between atoms: _534  and  _536
REMARK  225  A    between atoms: _536  and  _537
REMARK  226  A    between atoms: _536  and  _539
REMARK  227  A    between atoms: _539  and  _540
REMARK  228  A    between atoms: _540  and  _541
REMARK  229  A    between atoms: _546  and  _548
REMARK  230  A    between atoms: _548  and  _549
REMARK  231  A    between atoms: _548  and  _551
REMARK  232  A    between atoms: _551  and  _552
REMARK  233  A    between atoms: _555  and  _557
REMARK  234  A    between atoms: _557  and  _558
REMARK  235  A    between atoms: _557  and  _560
REMARK  236  A    between atoms: _560  and  _561
REMARK  237  A    between atoms: _564  and  _566
REMARK  238  A    between atoms: _566  and  _567
REMARK  239  A    between atoms: _566  and  _569
REMARK  240  A    between atoms: _569  and  _570
REMARK  241  A    between atoms: _575  and  _577
REMARK  242  A    between atoms: _577  and  _578
REMARK  243  A    between atoms: _577  and  _580
REMARK  244  A    between atoms: _580  and  _581
REMARK  245  A    between atoms: _584  and  _586
REMARK  246  A    between atoms: _586  and  _587
REMARK  247  A    between atoms: _586  and  _589
REMARK  248  A    between atoms: _589  and  _590
REMARK  249  A    between atoms: _590  and  _591
REMARK  250  A    between atoms: _596  and  _598
REMARK  251  A    between atoms: _598  and  _599
REMARK  252  A    between atoms: _601  and  _603
REMARK  253  A    between atoms: _603  and  _604
REMARK  254  A    between atoms: _603  and  _606
REMARK  255  A    between atoms: _606  and  _607
REMARK  256  A    between atoms: _612  and  _614
REMARK  257  A    between atoms: _614  and  _615
REMARK  258  A    between atoms: _614  and  _617
REMARK  259  A    between atoms: _617  and  _618
REMARK  260  A    between atoms: _621  and  _623
REMARK  261  A    between atoms: _623  and  _624
REMARK  262  A    between atoms: _623  and  _626
REMARK  263  A    between atoms: _626  and  _627
REMARK                            x       y       z     vdW  Elec       q    Type
REMARK                         _______ _______ _______ _____ _____    ______ ____
ROOT
ATOM      1  O   HOH     1      86.062  73.006 185.977  0.00  0.00    +0.000 OA
ENDROOT
TORSDOF 0
REMARK  Name = ../refined-set-2016/3d2e/3d2e_pocket.pdb
REMARK  263 active torsions:
REMARK  status: ('A' for Active; 'I' for Inactive)
REMARK    1  A    between atoms: _1  and  _3
REMARK    2  A    between atoms: _3  and  _4
REMARK    3  A    between atoms: _3  and  _6
REMARK    4  A    between atoms: _6  and  _7
REMARK    5  A    between atoms: _10  and  _12
REMARK    6  A    between atoms: _12  and  _13
REMARK    7  A    between atoms: _12  and  _15
REMARK    8  A    between atoms: _15  and  _16
REMARK    9  A    between atoms: _19  and  _21
REMARK   10  A    between atoms: _21  and  _22
REMARK   11  A    between atoms: _24  and  _26
REMARK   12  A    between atoms: _26  and  _27
REMARK   13  A    between atoms: _26  and  _29
REMARK   14  A    between atoms: _29  and  _30
REMARK   15  A    between atoms: _35  and  _37
REMARK   16  A    between atoms: _37  and  _38
REMARK   17  A    between atoms: _37  and  _40
REMARK   18  A    between atoms: _40  and  _41
REMARK   19  A    between atoms: _46  and  _48
REMARK   20  A    between atoms: _48  and  _49
REMARK   21  A    between atoms: _48  and  _51
REMARK   22  A    between atoms: _51  and  _52
REMARK   23  A    between atoms: _57  and  _59
REMARK   24  A    between atoms: _59  and  _60
REMARK   25  A    between atoms: _59  and  _62
REMARK   26  A    between atoms: _62  and  _63
REMARK   27  A    between atoms: _65  and  _67
REMARK   28  A    between atoms: _67  and  _68
REMARK   29  A    between atoms: _67  and  _70
REMARK   30  A    between atoms: _73  and  _75
REMARK   31  A    between atoms: _75  and  _76
REMARK   32  A    between atoms: _75  and  _78
REMARK   33  A    between atoms: _78  and  _79
REMARK   34  A    between atoms: _81  and  _83
REMARK   35  A    between atoms: _83  and  _84
REMARK   36  A    between atoms: _83  and  _86
REMARK   37  A    between atoms: _86  and  _87
REMARK   38  A    between atoms: _90  and  _92
REMARK   39  A    between atoms: _92  and  _93
REMARK   40  A    between atoms: _92  and  _95
REMARK   41  A    between atoms: _95  and  _96
REMARK   42  A    between atoms: _98  and  _100
REMARK   43  A    between atoms: _100  and  _101
REMARK   44  A    between atoms: _100  and  _103
REMARK   45  A    between atoms: _103  and  _104
REMARK   46  A    between atoms: _104  and  _105
REMARK   47  A    between atoms: _105  and  _106
REMARK   48  A    between atoms: _106  and  _107
REMARK   49  A    between atoms: _111  and  _113
REMARK   50  A    between atoms: _113  and  _114
REMARK   51  A    between atoms: _113  and  _116
REMARK   52  A    between atoms: _116  and  _117
REMARK   53  A    between atoms: _117  and  _118
REMARK   54  A    between atoms: _118  and  _119
REMARK   55  A    between atoms: _128  and  _130
REMARK   56  A    between atoms: _130  and  _131
REMARK   57  A    between atoms: _134  and  _136
REMARK   58  A    between atoms: _136  and  _137
REMARK   59  A    between atoms: _136  and  _139
REMARK   60  A    between atoms: _143  and  _144
REMARK   61  A    between atoms: _149  and  _151
REMARK   62  A    between atoms: _151  and  _152
REMARK   63  A    between atoms: _151  and  _154
REMARK   64  A    between atoms: _154  and  _155
REMARK   65  A    between atoms: _165  and  _167
REMARK   66  A    between atoms: _167  and  _168
REMARK   67  A    between atoms: _167  and  _170
REMARK   68  A    between atoms: _170  and  _171
REMARK   69  A    between atoms: _174  and  _176
REMARK   70  A    between atoms: _176  and  _177
REMARK   71  A    between atoms: _176  and  _179
REMARK   72  A    between atoms: _179  and  _180
REMARK   73  A    between atoms: _183  and  _185
REMARK   74  A    between atoms: _185  and  _186
REMARK   75  A    between atoms: _185  and  _188
REMARK   76  A    between atoms: _188  and  _189
REMARK   77  A    between atoms: _192  and  _194
REMARK   78  A    between atoms: _194  and  _195
REMARK   79  A    between atoms: _197  and  _199
REMARK   80  A    between atoms: _199  and  _200
REMARK   81  A    between atoms: _199  and  _202
REMARK   82  A    between atoms: _202  and  _203
REMARK   83  A    between atoms: _208  and  _210
REMARK   84  A    between atoms: _210  and  _211
REMARK   85  A    between atoms: _210  and  _213
REMARK   86  A    between atoms: _213  and  _214
REMARK   87  A    between atoms: _216  and  _218
REMARK   88  A    between atoms: _218  and  _219
REMARK   89  A    between atoms: _218  and  _221
REMARK   90  A    between atoms: _221  and  _222
REMARK   91  A    between atoms: _224  and  _226
REMARK   92  A    between atoms: _226  and  _227
REMARK   93  A    between atoms: _226  and  _229
REMARK   94  A    between atoms: _229  and  _230
REMARK   95  A    between atoms: _235  and  _236
REMARK   96  A    between atoms: _238  and  _240
REMARK   97  A    between atoms: _240  and  _241
REMARK   98  A    between atoms: _240  and  _243
REMARK   99  A    between atoms: _243  and  _244
REMARK  100  A    between atoms: _247  and  _249
REMARK  101  A    between atoms: _249  and  _250
REMARK  102  A    between atoms: _249  and  _252
REMARK  103  A    between atoms: _252  and  _253
REMARK  104  A    between atoms: _256  and  _258
REMARK  105  A    between atoms: _258  and  _259
REMARK  106  A    between atoms: _258  and  _261
REMARK  107  A    between atoms: _261  and  _262
REMARK  108  A    between atoms: _262  and  _263
REMARK  109  A    between atoms: _263  and  _264
REMARK  110  A    between atoms: _264  and  _265
REMARK  111  A    between atoms: _269  and  _271
REMARK  112  A    between atoms: _271  and  _272
REMARK  113  A    between atoms: _271  and  _274
REMARK  114  A    between atoms: _274  and  _275
REMARK  115  A    between atoms: _281  and  _283
REMARK  116  A    between atoms: _283  and  _284
REMARK  117  A    between atoms: _286  and  _288
REMARK  118  A    between atoms: _288  and  _289
REMARK  119  A    between atoms: _291  and  _293
REMARK  120  A    between atoms: _293  and  _294
REMARK  121  A    between atoms: _293  and  _296
REMARK  122  A    between atoms: _296  and  _297
REMARK  123  A    between atoms: _297  and  _298
REMARK  124  A    between atoms: _298  and  _299
REMARK  125  A    between atoms: _308  and  _310
REMARK  126  A    between atoms: _310  and  _311
REMARK  127  A    between atoms: _310  and  _313
REMARK  128  A    between atoms: _313  and  _314
REMARK  129  A    between atoms: _317  and  _319
REMARK  130  A    between atoms: _319  and  _320
REMARK  131  A    between atoms: _319  and  _322
REMARK  132  A    between atoms: _322  and  _323
REMARK  133  A    between atoms: _329  and  _331
REMARK  134  A    between atoms: _331  and  _332
REMARK  135  A    between atoms: _331  and  _334
REMARK  136  A    between atoms: _334  and  _335
REMARK  137  A    between atoms: _338  and  _340
REMARK  138  A    between atoms: _340  and  _341
REMARK  139  A    between atoms: _344  and  _346
REMARK  140  A    between atoms: _346  and  _347
REMARK  141  A    between atoms: _346  and  _349
REMARK  142  A    between atoms: _349  and  _350
REMARK  143  A    between atoms: _350  and  _351
REMARK  144  A    between atoms: _354  and  _356
REMARK  145  A    between atoms: _356  and  _357
REMARK  146  A    between atoms: _356  and  _359
REMARK  147  A    between atoms: _359  and  _360
REMARK  148  A    between atoms: _360  and  _361
REMARK  149  A    between atoms: _361  and  _362
REMARK  150  A    between atoms: _362  and  _363
REMARK  151  A    between atoms: _367  and  _369
REMARK  152  A    between atoms: _369  and  _370
REMARK  153  A    between atoms: _369  and  _372
REMARK  154  A    between atoms: _372  and  _373
REMARK  155  A    between atoms: _376  and  _378
REMARK  156  A    between atoms: _378  and  _379
REMARK  157  A    between atoms: _378  and  _381
REMARK  158  A    between atoms: _381  and  _382
REMARK  159  A    between atoms: _382  and  _383
REMARK  160  A    between atoms: _383  and  _384
REMARK  161  A    between atoms: _384  and  _385
REMARK  162  A    between atoms: _389  and  _391
REMARK  163  A    between atoms: _391  and  _392
REMARK  164  A    between atoms: _391  and  _394
REMARK  165  A    between atoms: _394  and  _395
REMARK  166  A    between atoms: _395  and  _396
REMARK  167  A    between atoms: _396  and  _397
REMARK  168  A    between atoms: _397  and  _398
REMARK  169  A    between atoms: _402  and  _404
REMARK  170  A    between atoms: _404  and  _405
REMARK  171  A    between atoms: _404  and  _407
REMARK  172  A    between atoms: _410  and  _412
REMARK  173  A    between atoms: _412  and  _413
REMARK  174  A    between atoms: _412  and  _415
REMARK  175  A    between atoms: _415  and  _416
REMARK  176  A    between atoms: _419  and  _421
REMARK  177  A    between atoms: _421  and  _422
REMARK  178  A    between atoms: _421  and  _424
REMARK  179  A    between atoms: _424  and  _425
REMARK  180  A    between atoms: _427  and  _429
REMARK  181  A    between atoms: _429  and  _430
REMARK  182  A    between atoms: _433  and  _435
REMARK  183  A    between atoms: _435  and  _436
REMARK  184  A    between atoms: _435  and  _438
REMARK  185  A    between atoms: _438  and  _439
REMARK  186  A    between atoms: _442  and  _444
REMARK  187  A    between atoms: _444  and  _445
REMARK  188  A    between atoms: _444  and  _447
REMARK  189  A    between atoms: _447  and  _448
REMARK  190  A    between atoms: _451  and  _453
REMARK  191  A    between atoms: _453  and  _454
REMARK  192  A    between atoms: _456  and  _458
REMARK  193  A    between atoms: _458  and  _459
REMARK  194  A    between atoms: _461  and  _463
REMARK  195  A    between atoms: _463  and  _464
REMARK  196  A    between atoms: _463  and  _466
REMARK  197  A    between atoms: _466  and  _467
REMARK  198  A    between atoms: _470  and  _472
REMARK  199  A    between atoms: _472  and  _473
REMARK  200  A    between atoms: _472  and  _475
REMARK  201  A    between atoms: _475  and  _476
REMARK  202  A    between atoms: _479  and  _481
REMARK  203  A    between atoms: _481  and  _482
REMARK  204  A    between atoms: _481  and  _484
REMARK  205  A    between atoms: _484  and  _485
REMARK  206  A    between atoms: _485  and  _486
REMARK  207  A    between atoms: _486  and  _487
REMARK  208  A    between atoms: _496  and  _498
REMARK  209  A    between atoms: _498  and  _499
REMARK  210  A    between atoms: _498  and  _501
REMARK  211  A    between atoms: _501  and  _502
REMARK  212  A    between atoms: _506  and  _507
REMARK  213  A    between atoms: _512  and  _514
REMARK  214  A    between atoms: _514  and  _515
REMARK  215  A    between atoms: _514  and  _517
REMARK  216  A    between atoms: _517  and  _518
REMARK  217  A    between atoms: _521  and  _523
REMARK  218  A    between atoms: _523  and  _524
REMARK  219  A    between atoms: _523  and  _526
REMARK  220  A    between atoms: _526  and  _527
REMARK  221  A    between atoms: _527  and  _528
REMARK  222  A    between atoms: _528  and  _529
REMARK  223  A    between atoms: _529  and  _530
REMARK  224  A    between atoms: _534  and  _536
REMARK  225  A    between atoms: _536  and  _537
REMARK  226  A    between atoms: _536  and  _539
REMARK  227  A    between atoms: _539  and  _540
REMARK  228  A    between atoms: _540  and  _541
REMARK  229  A    between atoms: _546  and  _548
REMARK  230  A    between atoms: _548  and  _549
REMARK  231  A    between atoms: _548  and  _551
REMARK  232  A    between atoms: _551  and  _552
REMARK  233  A    between atoms: _555  and  _557
REMARK  234  A    between atoms: _557  and  _558
REMARK  235  A    between atoms: _557  and  _560
REMARK  236  A    between atoms: _560  and  _561
REMARK  237  A    between atoms: _564  and  _566
REMARK  238  A    between atoms: _566  and  _567
REMARK  239  A    between atoms: _566  and  _569
REMARK  240  A    between atoms: _569  and  _570
REMARK  241  A    between atoms: _575  and  _577
REMARK  242  A    between atoms: _577  and  _578
REMARK  243  A    between atoms: _577  and  _580
REMARK  244  A    between atoms: _580  and  _581
REMARK  245  A    between atoms: _584  and  _586
REMARK  246  A    between atoms: _586  and  _587
REMARK  247  A    between atoms: _586  and  _589
REMARK  248  A    between atoms: _589  and  _590
REMARK  249  A    between atoms: _590  and  _591
REMARK  250  A    between atoms: _596  and  _598
REMARK  251  A    between atoms: _598  and  _599
REMARK  252  A    between atoms: _601  and  _603
REMARK  253  A    between atoms: _603  and  _604
REMARK  254  A    between atoms: _603  and  _606
REMARK  255  A    between atoms: _606  and  _607
REMARK  256  A    between atoms: _612  and  _614
REMARK  257  A    between atoms: _614  and  _615
REMARK  258  A    between atoms: _614  and  _617
REMARK  259  A    between atoms: _617  and  _618
REMARK  260  A    between atoms: _621  and  _623
REMARK  261  A    between atoms: _623  and  _624
REMARK  262  A    between atoms: _623  and  _626
REMARK  263  A    between atoms: _626  and  _627
REMARK                            x       y       z     vdW  Elec       q    Type
REMARK                         _______ _______ _______ _____ _____    ______ ____
ROOT
ATOM      1  O   HOH     1      93.308  76.508 187.550  0.00  0.00    +0.000 OA
ENDROOT
TORSDOF 0
REMARK  Name = ../refined-set-2016/3d2e/3d2e_pocket.pdb
REMARK  263 active torsions:
REMARK  status: ('A' for Active; 'I' for Inactive)
REMARK    1  A    between atoms: _1  and  _3
REMARK    2  A    between atoms: _3  and  _4
REMARK    3  A    between atoms: _3  and  _6
REMARK    4  A    between atoms: _6  and  _7
REMARK    5  A    between atoms: _10  and  _12
REMARK    6  A    between atoms: _12  and  _13
REMARK    7  A    between atoms: _12  and  _15
REMARK    8  A    between atoms: _15  and  _16
REMARK    9  A    between atoms: _19  and  _21
REMARK   10  A    between atoms: _21  and  _22
REMARK   11  A    between atoms: _24  and  _26
REMARK   12  A    between atoms: _26  and  _27
REMARK   13  A    between atoms: _26  and  _29
REMARK   14  A    between atoms: _29  and  _30
REMARK   15  A    between atoms: _35  and  _37
REMARK   16  A    between atoms: _37  and  _38
REMARK   17  A    between atoms: _37  and  _40
REMARK   18  A    between atoms: _40  and  _41
REMARK   19  A    between atoms: _46  and  _48
REMARK   20  A    between atoms: _48  and  _49
REMARK   21  A    between atoms: _48  and  _51
REMARK   22  A    between atoms: _51  and  _52
REMARK   23  A    between atoms: _57  and  _59
REMARK   24  A    between atoms: _59  and  _60
REMARK   25  A    between atoms: _59  and  _62
REMARK   26  A    between atoms: _62  and  _63
REMARK   27  A    between atoms: _65  and  _67
REMARK   28  A    between atoms: _67  and  _68
REMARK   29  A    between atoms: _67  and  _70
REMARK   30  A    between atoms: _73  and  _75
REMARK   31  A    between atoms: _75  and  _76
REMARK   32  A    between atoms: _75  and  _78
REMARK   33  A    between atoms: _78  and  _79
REMARK   34  A    between atoms: _81  and  _83
REMARK   35  A    between atoms: _83  and  _84
REMARK   36  A    between atoms: _83  and  _86
REMARK   37  A    between atoms: _86  and  _87
REMARK   38  A    between atoms: _90  and  _92
REMARK   39  A    between atoms: _92  and  _93
REMARK   40  A    between atoms: _92  and  _95
REMARK   41  A    between atoms: _95  and  _96
REMARK   42  A    between atoms: _98  and  _100
REMARK   43  A    between atoms: _100  and  _101
REMARK   44  A    between atoms: _100  and  _103
REMARK   45  A    between atoms: _103  and  _104
REMARK   46  A    between atoms: _104  and  _105
REMARK   47  A    between atoms: _105  and  _106
REMARK   48  A    between atoms: _106  and  _107
REMARK   49  A    between atoms: _111  and  _113
REMARK   50  A    between atoms: _113  and  _114
REMARK   51  A    between atoms: _113  and  _116
REMARK   52  A    between atoms: _116  and  _117
REMARK   53  A    between atoms: _117  and  _118
REMARK   54  A    between atoms: _118  and  _119
REMARK   55  A    between atoms: _128  and  _130
REMARK   56  A    between atoms: _130  and  _131
REMARK   57  A    between atoms: _134  and  _136
REMARK   58  A    between atoms: _136  and  _137
REMARK   59  A    between atoms: _136  and  _139
REMARK   60  A    between atoms: _143  and  _144
REMARK   61  A    between atoms: _149  and  _151
REMARK   62  A    between atoms: _151  and  _152
REMARK   63  A    between atoms: _151  and  _154
REMARK   64  A    between atoms: _154  and  _155
REMARK   65  A    between atoms: _165  and  _167
REMARK   66  A    between atoms: _167  and  _168
REMARK   67  A    between atoms: _167  and  _170
REMARK   68  A    between atoms: _170  and  _171
REMARK   69  A    between atoms: _174  and  _176
REMARK   70  A    between atoms: _176  and  _177
REMARK   71  A    between atoms: _176  and  _179
REMARK   72  A    between atoms: _179  and  _180
REMARK   73  A    between atoms: _183  and  _185
REMARK   74  A    between atoms: _185  and  _186
REMARK   75  A    between atoms: _185  and  _188
REMARK   76  A    between atoms: _188  and  _189
REMARK   77  A    between atoms: _192  and  _194
REMARK   78  A    between atoms: _194  and  _195
REMARK   79  A    between atoms: _197  and  _199
REMARK   80  A    between atoms: _199  and  _200
REMARK   81  A    between atoms: _199  and  _202
REMARK   82  A    between atoms: _202  and  _203
REMARK   83  A    between atoms: _208  and  _210
REMARK   84  A    between atoms: _210  and  _211
REMARK   85  A    between atoms: _210  and  _213
REMARK   86  A    between atoms: _213  and  _214
REMARK   87  A    between atoms: _216  and  _218
REMARK   88  A    between atoms: _218  and  _219
REMARK   89  A    between atoms: _218  and  _221
REMARK   90  A    between atoms: _221  and  _222
REMARK   91  A    between atoms: _224  and  _226
REMARK   92  A    between atoms: _226  and  _227
REMARK   93  A    between atoms: _226  and  _229
REMARK   94  A    between atoms: _229  and  _230
REMARK   95  A    between atoms: _235  and  _236
REMARK   96  A    between atoms: _238  and  _240
REMARK   97  A    between atoms: _240  and  _241
REMARK   98  A    between atoms: _240  and  _243
REMARK   99  A    between atoms: _243  and  _244
REMARK  100  A    between atoms: _247  and  _249
REMARK  101  A    between atoms: _249  and  _250
REMARK  102  A    between atoms: _249  and  _252
REMARK  103  A    between atoms: _252  and  _253
REMARK  104  A    between atoms: _256  and  _258
REMARK  105  A    between atoms: _258  and  _259
REMARK  106  A    between atoms: _258  and  _261
REMARK  107  A    between atoms: _261  and  _262
REMARK  108  A    between atoms: _262  and  _263
REMARK  109  A    between atoms: _263  and  _264
REMARK  110  A    between atoms: _264  and  _265
REMARK  111  A    between atoms: _269  and  _271
REMARK  112  A    between atoms: _271  and  _272
REMARK  113  A    between atoms: _271  and  _274
REMARK  114  A    between atoms: _274  and  _275
REMARK  115  A    between atoms: _281  and  _283
REMARK  116  A    between atoms: _283  and  _284
REMARK  117  A    between atoms: _286  and  _288
REMARK  118  A    between atoms: _288  and  _289
REMARK  119  A    between atoms: _291  and  _293
REMARK  120  A    between atoms: _293  and  _294
REMARK  121  A    between atoms: _293  and  _296
REMARK  122  A    between atoms: _296  and  _297
REMARK  123  A    between atoms: _297  and  _298
REMARK  124  A    between atoms: _298  and  _299
REMARK  125  A    between atoms: _308  and  _310
REMARK  126  A    between atoms: _310  and  _311
REMARK  127  A    between atoms: _310  and  _313
REMARK  128  A    between atoms: _313  and  _314
REMARK  129  A    between atoms: _317  and  _319
REMARK  130  A    between atoms: _319  and  _320
REMARK  131  A    between atoms: _319  and  _322
REMARK  132  A    between atoms: _322  and  _323
REMARK  133  A    between atoms: _329  and  _331
REMARK  134  A    between atoms: _331  and  _332
REMARK  135  A    between atoms: _331  and  _334
REMARK  136  A    between atoms: _334  and  _335
REMARK  137  A    between atoms: _338  and  _340
REMARK  138  A    between atoms: _340  and  _341
REMARK  139  A    between atoms: _344  and  _346
REMARK  140  A    between atoms: _346  and  _347
REMARK  141  A    between atoms: _346  and  _349
REMARK  142  A    between atoms: _349  and  _350
REMARK  143  A    between atoms: _350  and  _351
REMARK  144  A    between atoms: _354  and  _356
REMARK  145  A    between atoms: _356  and  _357
REMARK  146  A    between atoms: _356  and  _359
REMARK  147  A    between atoms: _359  and  _360
REMARK  148  A    between atoms: _360  and  _361
REMARK  149  A    between atoms: _361  and  _362
REMARK  150  A    between atoms: _362  and  _363
REMARK  151  A    between atoms: _367  and  _369
REMARK  152  A    between atoms: _369  and  _370
REMARK  153  A    between atoms: _369  and  _372
REMARK  154  A    between atoms: _372  and  _373
REMARK  155  A    between atoms: _376  and  _378
REMARK  156  A    between atoms: _378  and  _379
REMARK  157  A    between atoms: _378  and  _381
REMARK  158  A    between atoms: _381  and  _382
REMARK  159  A    between atoms: _382  and  _383
REMARK  160  A    between atoms: _383  and  _384
REMARK  161  A    between atoms: _384  and  _385
REMARK  162  A    between atoms: _389  and  _391
REMARK  163  A    between atoms: _391  and  _392
REMARK  164  A    between atoms: _391  and  _394
REMARK  165  A    between atoms: _394  and  _395
REMARK  166  A    between atoms: _395  and  _396
REMARK  167  A    between atoms: _396  and  _397
REMARK  168  A    between atoms: _397  and  _398
REMARK  169  A    between atoms: _402  and  _404
REMARK  170  A    between atoms: _404  and  _405
REMARK  171  A    between atoms: _404  and  _407
REMARK  172  A    between atoms: _410  and  _412
REMARK  173  A    between atoms: _412  and  _413
REMARK  174  A    between atoms: _412  and  _415
REMARK  175  A    between atoms: _415  and  _416
REMARK  176  A    between atoms: _419  and  _421
REMARK  177  A    between atoms: _421  and  _422
REMARK  178  A    between atoms: _421  and  _424
REMARK  179  A    between atoms: _424  and  _425
REMARK  180  A    between atoms: _427  and  _429
REMARK  181  A    between atoms: _429  and  _430
REMARK  182  A    between atoms: _433  and  _435
REMARK  183  A    between atoms: _435  and  _436
REMARK  184  A    between atoms: _435  and  _438
REMARK  185  A    between atoms: _438  and  _439
REMARK  186  A    between atoms: _442  and  _444
REMARK  187  A    between atoms: _444  and  _445
REMARK  188  A    between atoms: _444  and  _447
REMARK  189  A    between atoms: _447  and  _448
REMARK  190  A    between atoms: _451  and  _453
REMARK  191  A    between atoms: _453  and  _454
REMARK  192  A    between atoms: _456  and  _458
REMARK  193  A    between atoms: _458  and  _459
REMARK  194  A    between atoms: _461  and  _463
REMARK  195  A    between atoms: _463  and  _464
REMARK  196  A    between atoms: _463  and  _466
REMARK  197  A    between atoms: _466  and  _467
REMARK  198  A    between atoms: _470  and  _472
REMARK  199  A    between atoms: _472  and  _473
REMARK  200  A    between atoms: _472  and  _475
REMARK  201  A    between atoms: _475  and  _476
REMARK  202  A    between atoms: _479  and  _481
REMARK  203  A    between atoms: _481  and  _482
REMARK  204  A    between atoms: _481  and  _484
REMARK  205  A    between atoms: _484  and  _485
REMARK  206  A    between atoms: _485  and  _486
REMARK  207  A    between atoms: _486  and  _487
REMARK  208  A    between atoms: _496  and  _498
REMARK  209  A    between atoms: _498  and  _499
REMARK  210  A    between atoms: _498  and  _501
REMARK  211  A    between atoms: _501  and  _502
REMARK  212  A    between atoms: _506  and  _507
REMARK  213  A    between atoms: _512  and  _514
REMARK  214  A    between atoms: _514  and  _515
REMARK  215  A    between atoms: _514  and  _517
REMARK  216  A    between atoms: _517  and  _518
REMARK  217  A    between atoms: _521  and  _523
REMARK  218  A    between atoms: _523  and  _524
REMARK  219  A    between atoms: _523  and  _526
REMARK  220  A    between atoms: _526  and  _527
REMARK  221  A    between atoms: _527  and  _528
REMARK  222  A    between atoms: _528  and  _529
REMARK  223  A    between atoms: _529  and  _530
REMARK  224  A    between atoms: _534  and  _536
REMARK  225  A    between atoms: _536  and  _537
REMARK  226  A    between atoms: _536  and  _539
REMARK  227  A    between atoms: _539  and  _540
REMARK  228  A    between atoms: _540  and  _541
REMARK  229  A    between atoms: _546  and  _548
REMARK  230  A    between atoms: _548  and  _549
REMARK  231  A    between atoms: _548  and  _551
REMARK  232  A    between atoms: _551  and  _552
REMARK  233  A    between atoms: _555  and  _557
REMARK  234  A    between atoms: _557  and  _558
REMARK  235  A    between atoms: _557  and  _560
REMARK  236  A    between atoms: _560  and  _561
REMARK  237  A    between atoms: _564  and  _566
REMARK  238  A    between atoms: _566  and  _567
REMARK  239  A    between atoms: _566  and  _569
REMARK  240  A    between atoms: _569  and  _570
REMARK  241  A    between atoms: _575  and  _577
REMARK  242  A    between atoms: _577  and  _578
REMARK  243  A    between atoms: _577  and  _580
REMARK  244  A    between atoms: _580  and  _581
REMARK  245  A    between atoms: _584  and  _586
REMARK  246  A    between atoms: _586  and  _587
REMARK  247  A    between atoms: _586  and  _589
REMARK  248  A    between atoms: _589  and  _590
REMARK  249  A    between atoms: _590  and  _591
REMARK  250  A    between atoms: _596  and  _598
REMARK  251  A    between atoms: _598  and  _599
REMARK  252  A    between atoms: _601  and  _603
REMARK  253  A    between atoms: _603  and  _604
REMARK  254  A    between atoms: _603  and  _606
REMARK  255  A    between atoms: _606  and  _607
REMARK  256  A    between atoms: _612  and  _614
REMARK  257  A    between atoms: _614  and  _615
REMARK  258  A    between atoms: _614  and  _617
REMARK  259  A    between atoms: _617  and  _618
REMARK  260  A    between atoms: _621  and  _623
REMARK  261  A    between atoms: _623  and  _624
REMARK  262  A    between atoms: _623  and  _626
REMARK  263  A    between atoms: _626  and  _627
REMARK                            x       y       z     vdW  Elec       q    Type
REMARK                         _______ _______ _______ _____ _____    ______ ____
ROOT
ATOM      1  O   HOH     1      94.908  78.342 186.514  0.00  0.00    +0.000 OA
ENDROOT
TORSDOF 0
REMARK  Name = ../refined-set-2016/3d2e/3d2e_pocket.pdb
REMARK  263 active torsions:
REMARK  status: ('A' for Active; 'I' for Inactive)
REMARK    1  A    between atoms: _1  and  _3
REMARK    2  A    between atoms: _3  and  _4
REMARK    3  A    between atoms: _3  and  _6
REMARK    4  A    between atoms: _6  and  _7
REMARK    5  A    between atoms: _10  and  _12
REMARK    6  A    between atoms: _12  and  _13
REMARK    7  A    between atoms: _12  and  _15
REMARK    8  A    between atoms: _15  and  _16
REMARK    9  A    between atoms: _19  and  _21
REMARK   10  A    between atoms: _21  and  _22
REMARK   11  A    between atoms: _24  and  _26
REMARK   12  A    between atoms: _26  and  _27
REMARK   13  A    between atoms: _26  and  _29
REMARK   14  A    between atoms: _29  and  _30
REMARK   15  A    between atoms: _35  and  _37
REMARK   16  A    between atoms: _37  and  _38
REMARK   17  A    between atoms: _37  and  _40
REMARK   18  A    between atoms: _40  and  _41
REMARK   19  A    between atoms: _46  and  _48
REMARK   20  A    between atoms: _48  and  _49
REMARK   21  A    between atoms: _48  and  _51
REMARK   22  A    between atoms: _51  and  _52
REMARK   23  A    between atoms: _57  and  _59
REMARK   24  A    between atoms: _59  and  _60
REMARK   25  A    between atoms: _59  and  _62
REMARK   26  A    between atoms: _62  and  _63
REMARK   27  A    between atoms: _65  and  _67
REMARK   28  A    between atoms: _67  and  _68
REMARK   29  A    between atoms: _67  and  _70
REMARK   30  A    between atoms: _73  and  _75
REMARK   31  A    between atoms: _75  and  _76
REMARK   32  A    between atoms: _75  and  _78
REMARK   33  A    between atoms: _78  and  _79
REMARK   34  A    between atoms: _81  and  _83
REMARK   35  A    between atoms: _83  and  _84
REMARK   36  A    between atoms: _83  and  _86
REMARK   37  A    between atoms: _86  and  _87
REMARK   38  A    between atoms: _90  and  _92
REMARK   39  A    between atoms: _92  and  _93
REMARK   40  A    between atoms: _92  and  _95
REMARK   41  A    between atoms: _95  and  _96
REMARK   42  A    between atoms: _98  and  _100
REMARK   43  A    between atoms: _100  and  _101
REMARK   44  A    between atoms: _100  and  _103
REMARK   45  A    between atoms: _103  and  _104
REMARK   46  A    between atoms: _104  and  _105
REMARK   47  A    between atoms: _105  and  _106
REMARK   48  A    between atoms: _106  and  _107
REMARK   49  A    between atoms: _111  and  _113
REMARK   50  A    between atoms: _113  and  _114
REMARK   51  A    between atoms: _113  and  _116
REMARK   52  A    between atoms: _116  and  _117
REMARK   53  A    between atoms: _117  and  _118
REMARK   54  A    between atoms: _118  and  _119
REMARK   55  A    between atoms: _128  and  _130
REMARK   56  A    between atoms: _130  and  _131
REMARK   57  A    between atoms: _134  and  _136
REMARK   58  A    between atoms: _136  and  _137
REMARK   59  A    between atoms: _136  and  _139
REMARK   60  A    between atoms: _143  and  _144
REMARK   61  A    between atoms: _149  and  _151
REMARK   62  A    between atoms: _151  and  _152
REMARK   63  A    between atoms: _151  and  _154
REMARK   64  A    between atoms: _154  and  _155
REMARK   65  A    between atoms: _165  and  _167
REMARK   66  A    between atoms: _167  and  _168
REMARK   67  A    between atoms: _167  and  _170
REMARK   68  A    between atoms: _170  and  _171
REMARK   69  A    between atoms: _174  and  _176
REMARK   70  A    between atoms: _176  and  _177
REMARK   71  A    between atoms: _176  and  _179
REMARK   72  A    between atoms: _179  and  _180
REMARK   73  A    between atoms: _183  and  _185
REMARK   74  A    between atoms: _185  and  _186
REMARK   75  A    between atoms: _185  and  _188
REMARK   76  A    between atoms: _188  and  _189
REMARK   77  A    between atoms: _192  and  _194
REMARK   78  A    between atoms: _194  and  _195
REMARK   79  A    between atoms: _197  and  _199
REMARK   80  A    between atoms: _199  and  _200
REMARK   81  A    between atoms: _199  and  _202
REMARK   82  A    between atoms: _202  and  _203
REMARK   83  A    between atoms: _208  and  _210
REMARK   84  A    between atoms: _210  and  _211
REMARK   85  A    between atoms: _210  and  _213
REMARK   86  A    between atoms: _213  and  _214
REMARK   87  A    between atoms: _216  and  _218
REMARK   88  A    between atoms: _218  and  _219
REMARK   89  A    between atoms: _218  and  _221
REMARK   90  A    between atoms: _221  and  _222
REMARK   91  A    between atoms: _224  and  _226
REMARK   92  A    between atoms: _226  and  _227
REMARK   93  A    between atoms: _226  and  _229
REMARK   94  A    between atoms: _229  and  _230
REMARK   95  A    between atoms: _235  and  _236
REMARK   96  A    between atoms: _238  and  _240
REMARK   97  A    between atoms: _240  and  _241
REMARK   98  A    between atoms: _240  and  _243
REMARK   99  A    between atoms: _243  and  _244
REMARK  100  A    between atoms: _247  and  _249
REMARK  101  A    between atoms: _249  and  _250
REMARK  102  A    between atoms: _249  and  _252
REMARK  103  A    between atoms: _252  and  _253
REMARK  104  A    between atoms: _256  and  _258
REMARK  105  A    between atoms: _258  and  _259
REMARK  106  A    between atoms: _258  and  _261
REMARK  107  A    between atoms: _261  and  _262
REMARK  108  A    between atoms: _262  and  _263
REMARK  109  A    between atoms: _263  and  _264
REMARK  110  A    between atoms: _264  and  _265
REMARK  111  A    between atoms: _269  and  _271
REMARK  112  A    between atoms: _271  and  _272
REMARK  113  A    between atoms: _271  and  _274
REMARK  114  A    between atoms: _274  and  _275
REMARK  115  A    between atoms: _281  and  _283
REMARK  116  A    between atoms: _283  and  _284
REMARK  117  A    between atoms: _286  and  _288
REMARK  118  A    between atoms: _288  and  _289
REMARK  119  A    between atoms: _291  and  _293
REMARK  120  A    between atoms: _293  and  _294
REMARK  121  A    between atoms: _293  and  _296
REMARK  122  A    between atoms: _296  and  _297
REMARK  123  A    between atoms: _297  and  _298
REMARK  124  A    between atoms: _298  and  _299
REMARK  125  A    between atoms: _308  and  _310
REMARK  126  A    between atoms: _310  and  _311
REMARK  127  A    between atoms: _310  and  _313
REMARK  128  A    between atoms: _313  and  _314
REMARK  129  A    between atoms: _317  and  _319
REMARK  130  A    between atoms: _319  and  _320
REMARK  131  A    between atoms: _319  and  _322
REMARK  132  A    between atoms: _322  and  _323
REMARK  133  A    between atoms: _329  and  _331
REMARK  134  A    between atoms: _331  and  _332
REMARK  135  A    between atoms: _331  and  _334
REMARK  136  A    between atoms: _334  and  _335
REMARK  137  A    between atoms: _338  and  _340
REMARK  138  A    between atoms: _340  and  _341
REMARK  139  A    between atoms: _344  and  _346
REMARK  140  A    between atoms: _346  and  _347
REMARK  141  A    between atoms: _346  and  _349
REMARK  142  A    between atoms: _349  and  _350
REMARK  143  A    between atoms: _350  and  _351
REMARK  144  A    between atoms: _354  and  _356
REMARK  145  A    between atoms: _356  and  _357
REMARK  146  A    between atoms: _356  and  _359
REMARK  147  A    between atoms: _359  and  _360
REMARK  148  A    between atoms: _360  and  _361
REMARK  149  A    between atoms: _361  and  _362
REMARK  150  A    between atoms: _362  and  _363
REMARK  151  A    between atoms: _367  and  _369
REMARK  152  A    between atoms: _369  and  _370
REMARK  153  A    between atoms: _369  and  _372
REMARK  154  A    between atoms: _372  and  _373
REMARK  155  A    between atoms: _376  and  _378
REMARK  156  A    between atoms: _378  and  _379
REMARK  157  A    between atoms: _378  and  _381
REMARK  158  A    between atoms: _381  and  _382
REMARK  159  A    between atoms: _382  and  _383
REMARK  160  A    between atoms: _383  and  _384
REMARK  161  A    between atoms: _384  and  _385
REMARK  162  A    between atoms: _389  and  _391
REMARK  163  A    between atoms: _391  and  _392
REMARK  164  A    between atoms: _391  and  _394
REMARK  165  A    between atoms: _394  and  _395
REMARK  166  A    between atoms: _395  and  _396
REMARK  167  A    between atoms: _396  and  _397
REMARK  168  A    between atoms: _397  and  _398
REMARK  169  A    between atoms: _402  and  _404
REMARK  170  A    between atoms: _404  and  _405
REMARK  171  A    between atoms: _404  and  _407
REMARK  172  A    between atoms: _410  and  _412
REMARK  173  A    between atoms: _412  and  _413
REMARK  174  A    between atoms: _412  and  _415
REMARK  175  A    between atoms: _415  and  _416
REMARK  176  A    between atoms: _419  and  _421
REMARK  177  A    between atoms: _421  and  _422
REMARK  178  A    between atoms: _421  and  _424
REMARK  179  A    between atoms: _424  and  _425
REMARK  180  A    between atoms: _427  and  _429
REMARK  181  A    between atoms: _429  and  _430
REMARK  182  A    between atoms: _433  and  _435
REMARK  183  A    between atoms: _435  and  _436
REMARK  184  A    between atoms: _435  and  _438
REMARK  185  A    between atoms: _438  and  _439
REMARK  186  A    between atoms: _442  and  _444
REMARK  187  A    between atoms: _444  and  _445
REMARK  188  A    between atoms: _444  and  _447
REMARK  189  A    between atoms: _447  and  _448
REMARK  190  A    between atoms: _451  and  _453
REMARK  191  A    between atoms: _453  and  _454
REMARK  192  A    between atoms: _456  and  _458
REMARK  193  A    between atoms: _458  and  _459
REMARK  194  A    between atoms: _461  and  _463
REMARK  195  A    between atoms: _463  and  _464
REMARK  196  A    between atoms: _463  and  _466
REMARK  197  A    between atoms: _466  and  _467
REMARK  198  A    between atoms: _470  and  _472
REMARK  199  A    between atoms: _472  and  _473
REMARK  200  A    between atoms: _472  and  _475
REMARK  201  A    between atoms: _475  and  _476
REMARK  202  A    between atoms: _479  and  _481
REMARK  203  A    between atoms: _481  and  _482
REMARK  204  A    between atoms: _481  and  _484
REMARK  205  A    between atoms: _484  and  _485
REMARK  206  A    between atoms: _485  and  _486
REMARK  207  A    between atoms: _486  and  _487
REMARK  208  A    between atoms: _496  and  _498
REMARK  209  A    between atoms: _498  and  _499
REMARK  210  A    between atoms: _498  and  _501
REMARK  211  A    between atoms: _501  and  _502
REMARK  212  A    between atoms: _506  and  _507
REMARK  213  A    between atoms: _512  and  _514
REMARK  214  A    between atoms: _514  and  _515
REMARK  215  A    between atoms: _514  and  _517
REMARK  216  A    between atoms: _517  and  _518
REMARK  217  A    between atoms: _521  and  _523
REMARK  218  A    between atoms: _523  and  _524
REMARK  219  A    between atoms: _523  and  _526
REMARK  220  A    between atoms: _526  and  _527
REMARK  221  A    between atoms: _527  and  _528
REMARK  222  A    between atoms: _528  and  _529
REMARK  223  A    between atoms: _529  and  _530
REMARK  224  A    between atoms: _534  and  _536
REMARK  225  A    between atoms: _536  and  _537
REMARK  226  A    between atoms: _536  and  _539
REMARK  227  A    between atoms: _539  and  _540
REMARK  228  A    between atoms: _540  and  _541
REMARK  229  A    between atoms: _546  and  _548
REMARK  230  A    between atoms: _548  and  _549
REMARK  231  A    between atoms: _548  and  _551
REMARK  232  A    between atoms: _551  and  _552
REMARK  233  A    between atoms: _555  and  _557
REMARK  234  A    between atoms: _557  and  _558
REMARK  235  A    between atoms: _557  and  _560
REMARK  236  A    between atoms: _560  and  _561
REMARK  237  A    between atoms: _564  and  _566
REMARK  238  A    between atoms: _566  and  _567
REMARK  239  A    between atoms: _566  and  _569
REMARK  240  A    between atoms: _569  and  _570
REMARK  241  A    between atoms: _575  and  _577
REMARK  242  A    between atoms: _577  and  _578
REMARK  243  A    between atoms: _577  and  _580
REMARK  244  A    between atoms: _580  and  _581
REMARK  245  A    between atoms: _584  and  _586
REMARK  246  A    between atoms: _586  and  _587
REMARK  247  A    between atoms: _586  and  _589
REMARK  248  A    between atoms: _589  and  _590
REMARK  249  A    between atoms: _590  and  _591
REMARK  250  A    between atoms: _596  and  _598
REMARK  251  A    between atoms: _598  and  _599
REMARK  252  A    between atoms: _601  and  _603
REMARK  253  A    between atoms: _603  and  _604
REMARK  254  A    between atoms: _603  and  _606
REMARK  255  A    between atoms: _606  and  _607
REMARK  256  A    between atoms: _612  and  _614
REMARK  257  A    between atoms: _614  and  _615
REMARK  258  A    between atoms: _614  and  _617
REMARK  259  A    between atoms: _617  and  _618
REMARK  260  A    between atoms: _621  and  _623
REMARK  261  A    between atoms: _623  and  _624
REMARK  262  A    between atoms: _623  and  _626
REMARK  263  A    between atoms: _626  and  _627
REMARK                            x       y       z     vdW  Elec       q    Type
REMARK                         _______ _______ _______ _____ _____    ______ ____
ROOT
ATOM      1  O   HOH     1      93.149  73.445 175.853  0.00  0.00    +0.000 OA
ENDROOT
TORSDOF 0
REMARK  Name = ../refined-set-2016/3d2e/3d2e_pocket.pdb
REMARK  263 active torsions:
REMARK  status: ('A' for Active; 'I' for Inactive)
REMARK    1  A    between atoms: _1  and  _3
REMARK    2  A    between atoms: _3  and  _4
REMARK    3  A    between atoms: _3  and  _6
REMARK    4  A    between atoms: _6  and  _7
REMARK    5  A    between atoms: _10  and  _12
REMARK    6  A    between atoms: _12  and  _13
REMARK    7  A    between atoms: _12  and  _15
REMARK    8  A    between atoms: _15  and  _16
REMARK    9  A    between atoms: _19  and  _21
REMARK   10  A    between atoms: _21  and  _22
REMARK   11  A    between atoms: _24  and  _26
REMARK   12  A    between atoms: _26  and  _27
REMARK   13  A    between atoms: _26  and  _29
REMARK   14  A    between atoms: _29  and  _30
REMARK   15  A    between atoms: _35  and  _37
REMARK   16  A    between atoms: _37  and  _38
REMARK   17  A    between atoms: _37  and  _40
REMARK   18  A    between atoms: _40  and  _41
REMARK   19  A    between atoms: _46  and  _48
REMARK   20  A    between atoms: _48  and  _49
REMARK   21  A    between atoms: _48  and  _51
REMARK   22  A    between atoms: _51  and  _52
REMARK   23  A    between atoms: _57  and  _59
REMARK   24  A    between atoms: _59  and  _60
REMARK   25  A    between atoms: _59  and  _62
REMARK   26  A    between atoms: _62  and  _63
REMARK   27  A    between atoms: _65  and  _67
REMARK   28  A    between atoms: _67  and  _68
REMARK   29  A    between atoms: _67  and  _70
REMARK   30  A    between atoms: _73  and  _75
REMARK   31  A    between atoms: _75  and  _76
REMARK   32  A    between atoms: _75  and  _78
REMARK   33  A    between atoms: _78  and  _79
REMARK   34  A    between atoms: _81  and  _83
REMARK   35  A    between atoms: _83  and  _84
REMARK   36  A    between atoms: _83  and  _86
REMARK   37  A    between atoms: _86  and  _87
REMARK   38  A    between atoms: _90  and  _92
REMARK   39  A    between atoms: _92  and  _93
REMARK   40  A    between atoms: _92  and  _95
REMARK   41  A    between atoms: _95  and  _96
REMARK   42  A    between atoms: _98  and  _100
REMARK   43  A    between atoms: _100  and  _101
REMARK   44  A    between atoms: _100  and  _103
REMARK   45  A    between atoms: _103  and  _104
REMARK   46  A    between atoms: _104  and  _105
REMARK   47  A    between atoms: _105  and  _106
REMARK   48  A    between atoms: _106  and  _107
REMARK   49  A    between atoms: _111  and  _113
REMARK   50  A    between atoms: _113  and  _114
REMARK   51  A    between atoms: _113  and  _116
REMARK   52  A    between atoms: _116  and  _117
REMARK   53  A    between atoms: _117  and  _118
REMARK   54  A    between atoms: _118  and  _119
REMARK   55  A    between atoms: _128  and  _130
REMARK   56  A    between atoms: _130  and  _131
REMARK   57  A    between atoms: _134  and  _136
REMARK   58  A    between atoms: _136  and  _137
REMARK   59  A    between atoms: _136  and  _139
REMARK   60  A    between atoms: _143  and  _144
REMARK   61  A    between atoms: _149  and  _151
REMARK   62  A    between atoms: _151  and  _152
REMARK   63  A    between atoms: _151  and  _154
REMARK   64  A    between atoms: _154  and  _155
REMARK   65  A    between atoms: _165  and  _167
REMARK   66  A    between atoms: _167  and  _168
REMARK   67  A    between atoms: _167  and  _170
REMARK   68  A    between atoms: _170  and  _171
REMARK   69  A    between atoms: _174  and  _176
REMARK   70  A    between atoms: _176  and  _177
REMARK   71  A    between atoms: _176  and  _179
REMARK   72  A    between atoms: _179  and  _180
REMARK   73  A    between atoms: _183  and  _185
REMARK   74  A    between atoms: _185  and  _186
REMARK   75  A    between atoms: _185  and  _188
REMARK   76  A    between atoms: _188  and  _189
REMARK   77  A    between atoms: _192  and  _194
REMARK   78  A    between atoms: _194  and  _195
REMARK   79  A    between atoms: _197  and  _199
REMARK   80  A    between atoms: _199  and  _200
REMARK   81  A    between atoms: _199  and  _202
REMARK   82  A    between atoms: _202  and  _203
REMARK   83  A    between atoms: _208  and  _210
REMARK   84  A    between atoms: _210  and  _211
REMARK   85  A    between atoms: _210  and  _213
REMARK   86  A    between atoms: _213  and  _214
REMARK   87  A    between atoms: _216  and  _218
REMARK   88  A    between atoms: _218  and  _219
REMARK   89  A    between atoms: _218  and  _221
REMARK   90  A    between atoms: _221  and  _222
REMARK   91  A    between atoms: _224  and  _226
REMARK   92  A    between atoms: _226  and  _227
REMARK   93  A    between atoms: _226  and  _229
REMARK   94  A    between atoms: _229  and  _230
REMARK   95  A    between atoms: _235  and  _236
REMARK   96  A    between atoms: _238  and  _240
REMARK   97  A    between atoms: _240  and  _241
REMARK   98  A    between atoms: _240  and  _243
REMARK   99  A    between atoms: _243  and  _244
REMARK  100  A    between atoms: _247  and  _249
REMARK  101  A    between atoms: _249  and  _250
REMARK  102  A    between atoms: _249  and  _252
REMARK  103  A    between atoms: _252  and  _253
REMARK  104  A    between atoms: _256  and  _258
REMARK  105  A    between atoms: _258  and  _259
REMARK  106  A    between atoms: _258  and  _261
REMARK  107  A    between atoms: _261  and  _262
REMARK  108  A    between atoms: _262  and  _263
REMARK  109  A    between atoms: _263  and  _264
REMARK  110  A    between atoms: _264  and  _265
REMARK  111  A    between atoms: _269  and  _271
REMARK  112  A    between atoms: _271  and  _272
REMARK  113  A    between atoms: _271  and  _274
REMARK  114  A    between atoms: _274  and  _275
REMARK  115  A    between atoms: _281  and  _283
REMARK  116  A    between atoms: _283  and  _284
REMARK  117  A    between atoms: _286  and  _288
REMARK  118  A    between atoms: _288  and  _289
REMARK  119  A    between atoms: _291  and  _293
REMARK  120  A    between atoms: _293  and  _294
REMARK  121  A    between atoms: _293  and  _296
REMARK  122  A    between atoms: _296  and  _297
REMARK  123  A    between atoms: _297  and  _298
REMARK  124  A    between atoms: _298  and  _299
REMARK  125  A    between atoms: _308  and  _310
REMARK  126  A    between atoms: _310  and  _311
REMARK  127  A    between atoms: _310  and  _313
REMARK  128  A    between atoms: _313  and  _314
REMARK  129  A    between atoms: _317  and  _319
REMARK  130  A    between atoms: _319  and  _320
REMARK  131  A    between atoms: _319  and  _322
REMARK  132  A    between atoms: _322  and  _323
REMARK  133  A    between atoms: _329  and  _331
REMARK  134  A    between atoms: _331  and  _332
REMARK  135  A    between atoms: _331  and  _334
REMARK  136  A    between atoms: _334  and  _335
REMARK  137  A    between atoms: _338  and  _340
REMARK  138  A    between atoms: _340  and  _341
REMARK  139  A    between atoms: _344  and  _346
REMARK  140  A    between atoms: _346  and  _347
REMARK  141  A    between atoms: _346  and  _349
REMARK  142  A    between atoms: _349  and  _350
REMARK  143  A    between atoms: _350  and  _351
REMARK  144  A    between atoms: _354  and  _356
REMARK  145  A    between atoms: _356  and  _357
REMARK  146  A    between atoms: _356  and  _359
REMARK  147  A    between atoms: _359  and  _360
REMARK  148  A    between atoms: _360  and  _361
REMARK  149  A    between atoms: _361  and  _362
REMARK  150  A    between atoms: _362  and  _363
REMARK  151  A    between atoms: _367  and  _369
REMARK  152  A    between atoms: _369  and  _370
REMARK  153  A    between atoms: _369  and  _372
REMARK  154  A    between atoms: _372  and  _373
REMARK  155  A    between atoms: _376  and  _378
REMARK  156  A    between atoms: _378  and  _379
REMARK  157  A    between atoms: _378  and  _381
REMARK  158  A    between atoms: _381  and  _382
REMARK  159  A    between atoms: _382  and  _383
REMARK  160  A    between atoms: _383  and  _384
REMARK  161  A    between atoms: _384  and  _385
REMARK  162  A    between atoms: _389  and  _391
REMARK  163  A    between atoms: _391  and  _392
REMARK  164  A    between atoms: _391  and  _394
REMARK  165  A    between atoms: _394  and  _395
REMARK  166  A    between atoms: _395  and  _396
REMARK  167  A    between atoms: _396  and  _397
REMARK  168  A    between atoms: _397  and  _398
REMARK  169  A    between atoms: _402  and  _404
REMARK  170  A    between atoms: _404  and  _405
REMARK  171  A    between atoms: _404  and  _407
REMARK  172  A    between atoms: _410  and  _412
REMARK  173  A    between atoms: _412  and  _413
REMARK  174  A    between atoms: _412  and  _415
REMARK  175  A    between atoms: _415  and  _416
REMARK  176  A    between atoms: _419  and  _421
REMARK  177  A    between atoms: _421  and  _422
REMARK  178  A    between atoms: _421  and  _424
REMARK  179  A    between atoms: _424  and  _425
REMARK  180  A    between atoms: _427  and  _429
REMARK  181  A    between atoms: _429  and  _430
REMARK  182  A    between atoms: _433  and  _435
REMARK  183  A    between atoms: _435  and  _436
REMARK  184  A    between atoms: _435  and  _438
REMARK  185  A    between atoms: _438  and  _439
REMARK  186  A    between atoms: _442  and  _444
REMARK  187  A    between atoms: _444  and  _445
REMARK  188  A    between atoms: _444  and  _447
REMARK  189  A    between atoms: _447  and  _448
REMARK  190  A    between atoms: _451  and  _453
REMARK  191  A    between atoms: _453  and  _454
REMARK  192  A    between atoms: _456  and  _458
REMARK  193  A    between atoms: _458  and  _459
REMARK  194  A    between atoms: _461  and  _463
REMARK  195  A    between atoms: _463  and  _464
REMARK  196  A    between atoms: _463  and  _466
REMARK  197  A    between atoms: _466  and  _467
REMARK  198  A    between atoms: _470  and  _472
REMARK  199  A    between atoms: _472  and  _473
REMARK  200  A    between atoms: _472  and  _475
REMARK  201  A    between atoms: _475  and  _476
REMARK  202  A    between atoms: _479  and  _481
REMARK  203  A    between atoms: _481  and  _482
REMARK  204  A    between atoms: _481  and  _484
REMARK  205  A    between atoms: _484  and  _485
REMARK  206  A    between atoms: _485  and  _486
REMARK  207  A    between atoms: _486  and  _487
REMARK  208  A    between atoms: _496  and  _498
REMARK  209  A    between atoms: _498  and  _499
REMARK  210  A    between atoms: _498  and  _501
REMARK  211  A    between atoms: _501  and  _502
REMARK  212  A    between atoms: _506  and  _507
REMARK  213  A    between atoms: _512  and  _514
REMARK  214  A    between atoms: _514  and  _515
REMARK  215  A    between atoms: _514  and  _517
REMARK  216  A    between atoms: _517  and  _518
REMARK  217  A    between atoms: _521  and  _523
REMARK  218  A    between atoms: _523  and  _524
REMARK  219  A    between atoms: _523  and  _526
REMARK  220  A    between atoms: _526  and  _527
REMARK  221  A    between atoms: _527  and  _528
REMARK  222  A    between atoms: _528  and  _529
REMARK  223  A    between atoms: _529  and  _530
REMARK  224  A    between atoms: _534  and  _536
REMARK  225  A    between atoms: _536  and  _537
REMARK  226  A    between atoms: _536  and  _539
REMARK  227  A    between atoms: _539  and  _540
REMARK  228  A    between atoms: _540  and  _541
REMARK  229  A    between atoms: _546  and  _548
REMARK  230  A    between atoms: _548  and  _549
REMARK  231  A    between atoms: _548  and  _551
REMARK  232  A    between atoms: _551  and  _552
REMARK  233  A    between atoms: _555  and  _557
REMARK  234  A    between atoms: _557  and  _558
REMARK  235  A    between atoms: _557  and  _560
REMARK  236  A    between atoms: _560  and  _561
REMARK  237  A    between atoms: _564  and  _566
REMARK  238  A    between atoms: _566  and  _567
REMARK  239  A    between atoms: _566  and  _569
REMARK  240  A    between atoms: _569  and  _570
REMARK  241  A    between atoms: _575  and  _577
REMARK  242  A    between atoms: _577  and  _578
REMARK  243  A    between atoms: _577  and  _580
REMARK  244  A    between atoms: _580  and  _581
REMARK  245  A    between atoms: _584  and  _586
REMARK  246  A    between atoms: _586  and  _587
REMARK  247  A    between atoms: _586  and  _589
REMARK  248  A    between atoms: _589  and  _590
REMARK  249  A    between atoms: _590  and  _591
REMARK  250  A    between atoms: _596  and  _598
REMARK  251  A    between atoms: _598  and  _599
REMARK  252  A    between atoms: _601  and  _603
REMARK  253  A    between atoms: _603  and  _604
REMARK  254  A    between atoms: _603  and  _606
REMARK  255  A    between atoms: _606  and  _607
REMARK  256  A    between atoms: _612  and  _614
REMARK  257  A    between atoms: _614  and  _615
REMARK  258  A    between atoms: _614  and  _617
REMARK  259  A    between atoms: _617  and  _618
REMARK  260  A    between atoms: _621  and  _623
REMARK  261  A    between atoms: _623  and  _624
REMARK  262  A    between atoms: _623  and  _626
REMARK  263  A    between atoms: _626  and  _627
REMARK                            x       y       z     vdW  Elec       q    Type
REMARK                         _______ _______ _______ _____ _____    ______ ____
ROOT
ATOM      1  O   HOH     1      85.847  84.935 168.519  0.00  0.00    +0.000 OA
ENDROOT
TORSDOF 0
REMARK  Name = ../refined-set-2016/3d2e/3d2e_pocket.pdb
REMARK  263 active torsions:
REMARK  status: ('A' for Active; 'I' for Inactive)
REMARK    1  A    between atoms: _1  and  _3
REMARK    2  A    between atoms: _3  and  _4
REMARK    3  A    between atoms: _3  and  _6
REMARK    4  A    between atoms: _6  and  _7
REMARK    5  A    between atoms: _10  and  _12
REMARK    6  A    between atoms: _12  and  _13
REMARK    7  A    between atoms: _12  and  _15
REMARK    8  A    between atoms: _15  and  _16
REMARK    9  A    between atoms: _19  and  _21
REMARK   10  A    between atoms: _21  and  _22
REMARK   11  A    between atoms: _24  and  _26
REMARK   12  A    between atoms: _26  and  _27
REMARK   13  A    between atoms: _26  and  _29
REMARK   14  A    between atoms: _29  and  _30
REMARK   15  A    between atoms: _35  and  _37
REMARK   16  A    between atoms: _37  and  _38
REMARK   17  A    between atoms: _37  and  _40
REMARK   18  A    between atoms: _40  and  _41
REMARK   19  A    between atoms: _46  and  _48
REMARK   20  A    between atoms: _48  and  _49
REMARK   21  A    between atoms: _48  and  _51
REMARK   22  A    between atoms: _51  and  _52
REMARK   23  A    between atoms: _57  and  _59
REMARK   24  A    between atoms: _59  and  _60
REMARK   25  A    between atoms: _59  and  _62
REMARK   26  A    between atoms: _62  and  _63
REMARK   27  A    between atoms: _65  and  _67
REMARK   28  A    between atoms: _67  and  _68
REMARK   29  A    between atoms: _67  and  _70
REMARK   30  A    between atoms: _73  and  _75
REMARK   31  A    between atoms: _75  and  _76
REMARK   32  A    between atoms: _75  and  _78
REMARK   33  A    between atoms: _78  and  _79
REMARK   34  A    between atoms: _81  and  _83
REMARK   35  A    between atoms: _83  and  _84
REMARK   36  A    between atoms: _83  and  _86
REMARK   37  A    between atoms: _86  and  _87
REMARK   38  A    between atoms: _90  and  _92
REMARK   39  A    between atoms: _92  and  _93
REMARK   40  A    between atoms: _92  and  _95
REMARK   41  A    between atoms: _95  and  _96
REMARK   42  A    between atoms: _98  and  _100
REMARK   43  A    between atoms: _100  and  _101
REMARK   44  A    between atoms: _100  and  _103
REMARK   45  A    between atoms: _103  and  _104
REMARK   46  A    between atoms: _104  and  _105
REMARK   47  A    between atoms: _105  and  _106
REMARK   48  A    between atoms: _106  and  _107
REMARK   49  A    between atoms: _111  and  _113
REMARK   50  A    between atoms: _113  and  _114
REMARK   51  A    between atoms: _113  and  _116
REMARK   52  A    between atoms: _116  and  _117
REMARK   53  A    between atoms: _117  and  _118
REMARK   54  A    between atoms: _118  and  _119
REMARK   55  A    between atoms: _128  and  _130
REMARK   56  A    between atoms: _130  and  _131
REMARK   57  A    between atoms: _134  and  _136
REMARK   58  A    between atoms: _136  and  _137
REMARK   59  A    between atoms: _136  and  _139
REMARK   60  A    between atoms: _143  and  _144
REMARK   61  A    between atoms: _149  and  _151
REMARK   62  A    between atoms: _151  and  _152
REMARK   63  A    between atoms: _151  and  _154
REMARK   64  A    between atoms: _154  and  _155
REMARK   65  A    between atoms: _165  and  _167
REMARK   66  A    between atoms: _167  and  _168
REMARK   67  A    between atoms: _167  and  _170
REMARK   68  A    between atoms: _170  and  _171
REMARK   69  A    between atoms: _174  and  _176
REMARK   70  A    between atoms: _176  and  _177
REMARK   71  A    between atoms: _176  and  _179
REMARK   72  A    between atoms: _179  and  _180
REMARK   73  A    between atoms: _183  and  _185
REMARK   74  A    between atoms: _185  and  _186
REMARK   75  A    between atoms: _185  and  _188
REMARK   76  A    between atoms: _188  and  _189
REMARK   77  A    between atoms: _192  and  _194
REMARK   78  A    between atoms: _194  and  _195
REMARK   79  A    between atoms: _197  and  _199
REMARK   80  A    between atoms: _199  and  _200
REMARK   81  A    between atoms: _199  and  _202
REMARK   82  A    between atoms: _202  and  _203
REMARK   83  A    between atoms: _208  and  _210
REMARK   84  A    between atoms: _210  and  _211
REMARK   85  A    between atoms: _210  and  _213
REMARK   86  A    between atoms: _213  and  _214
REMARK   87  A    between atoms: _216  and  _218
REMARK   88  A    between atoms: _218  and  _219
REMARK   89  A    between atoms: _218  and  _221
REMARK   90  A    between atoms: _221  and  _222
REMARK   91  A    between atoms: _224  and  _226
REMARK   92  A    between atoms: _226  and  _227
REMARK   93  A    between atoms: _226  and  _229
REMARK   94  A    between atoms: _229  and  _230
REMARK   95  A    between atoms: _235  and  _236
REMARK   96  A    between atoms: _238  and  _240
REMARK   97  A    between atoms: _240  and  _241
REMARK   98  A    between atoms: _240  and  _243
REMARK   99  A    between atoms: _243  and  _244
REMARK  100  A    between atoms: _247  and  _249
REMARK  101  A    between atoms: _249  and  _250
REMARK  102  A    between atoms: _249  and  _252
REMARK  103  A    between atoms: _252  and  _253
REMARK  104  A    between atoms: _256  and  _258
REMARK  105  A    between atoms: _258  and  _259
REMARK  106  A    between atoms: _258  and  _261
REMARK  107  A    between atoms: _261  and  _262
REMARK  108  A    between atoms: _262  and  _263
REMARK  109  A    between atoms: _263  and  _264
REMARK  110  A    between atoms: _264  and  _265
REMARK  111  A    between atoms: _269  and  _271
REMARK  112  A    between atoms: _271  and  _272
REMARK  113  A    between atoms: _271  and  _274
REMARK  114  A    between atoms: _274  and  _275
REMARK  115  A    between atoms: _281  and  _283
REMARK  116  A    between atoms: _283  and  _284
REMARK  117  A    between atoms: _286  and  _288
REMARK  118  A    between atoms: _288  and  _289
REMARK  119  A    between atoms: _291  and  _293
REMARK  120  A    between atoms: _293  and  _294
REMARK  121  A    between atoms: _293  and  _296
REMARK  122  A    between atoms: _296  and  _297
REMARK  123  A    between atoms: _297  and  _298
REMARK  124  A    between atoms: _298  and  _299
REMARK  125  A    between atoms: _308  and  _310
REMARK  126  A    between atoms: _310  and  _311
REMARK  127  A    between atoms: _310  and  _313
REMARK  128  A    between atoms: _313  and  _314
REMARK  129  A    between atoms: _317  and  _319
REMARK  130  A    between atoms: _319  and  _320
REMARK  131  A    between atoms: _319  and  _322
REMARK  132  A    between atoms: _322  and  _323
REMARK  133  A    between atoms: _329  and  _331
REMARK  134  A    between atoms: _331  and  _332
REMARK  135  A    between atoms: _331  and  _334
REMARK  136  A    between atoms: _334  and  _335
REMARK  137  A    between atoms: _338  and  _340
REMARK  138  A    between atoms: _340  and  _341
REMARK  139  A    between atoms: _344  and  _346
REMARK  140  A    between atoms: _346  and  _347
REMARK  141  A    between atoms: _346  and  _349
REMARK  142  A    between atoms: _349  and  _350
REMARK  143  A    between atoms: _350  and  _351
REMARK  144  A    between atoms: _354  and  _356
REMARK  145  A    between atoms: _356  and  _357
REMARK  146  A    between atoms: _356  and  _359
REMARK  147  A    between atoms: _359  and  _360
REMARK  148  A    between atoms: _360  and  _361
REMARK  149  A    between atoms: _361  and  _362
REMARK  150  A    between atoms: _362  and  _363
REMARK  151  A    between atoms: _367  and  _369
REMARK  152  A    between atoms: _369  and  _370
REMARK  153  A    between atoms: _369  and  _372
REMARK  154  A    between atoms: _372  and  _373
REMARK  155  A    between atoms: _376  and  _378
REMARK  156  A    between atoms: _378  and  _379
REMARK  157  A    between atoms: _378  and  _381
REMARK  158  A    between atoms: _381  and  _382
REMARK  159  A    between atoms: _382  and  _383
REMARK  160  A    between atoms: _383  and  _384
REMARK  161  A    between atoms: _384  and  _385
REMARK  162  A    between atoms: _389  and  _391
REMARK  163  A    between atoms: _391  and  _392
REMARK  164  A    between atoms: _391  and  _394
REMARK  165  A    between atoms: _394  and  _395
REMARK  166  A    between atoms: _395  and  _396
REMARK  167  A    between atoms: _396  and  _397
REMARK  168  A    between atoms: _397  and  _398
REMARK  169  A    between atoms: _402  and  _404
REMARK  170  A    between atoms: _404  and  _405
REMARK  171  A    between atoms: _404  and  _407
REMARK  172  A    between atoms: _410  and  _412
REMARK  173  A    between atoms: _412  and  _413
REMARK  174  A    between atoms: _412  and  _415
REMARK  175  A    between atoms: _415  and  _416
REMARK  176  A    between atoms: _419  and  _421
REMARK  177  A    between atoms: _421  and  _422
REMARK  178  A    between atoms: _421  and  _424
REMARK  179  A    between atoms: _424  and  _425
REMARK  180  A    between atoms: _427  and  _429
REMARK  181  A    between atoms: _429  and  _430
REMARK  182  A    between atoms: _433  and  _435
REMARK  183  A    between atoms: _435  and  _436
REMARK  184  A    between atoms: _435  and  _438
REMARK  185  A    between atoms: _438  and  _439
REMARK  186  A    between atoms: _442  and  _444
REMARK  187  A    between atoms: _444  and  _445
REMARK  188  A    between atoms: _444  and  _447
REMARK  189  A    between atoms: _447  and  _448
REMARK  190  A    between atoms: _451  and  _453
REMARK  191  A    between atoms: _453  and  _454
REMARK  192  A    between atoms: _456  and  _458
REMARK  193  A    between atoms: _458  and  _459
REMARK  194  A    between atoms: _461  and  _463
REMARK  195  A    between atoms: _463  and  _464
REMARK  196  A    between atoms: _463  and  _466
REMARK  197  A    between atoms: _466  and  _467
REMARK  198  A    between atoms: _470  and  _472
REMARK  199  A    between atoms: _472  and  _473
REMARK  200  A    between atoms: _472  and  _475
REMARK  201  A    between atoms: _475  and  _476
REMARK  202  A    between atoms: _479  and  _481
REMARK  203  A    between atoms: _481  and  _482
REMARK  204  A    between atoms: _481  and  _484
REMARK  205  A    between atoms: _484  and  _485
REMARK  206  A    between atoms: _485  and  _486
REMARK  207  A    between atoms: _486  and  _487
REMARK  208  A    between atoms: _496  and  _498
REMARK  209  A    between atoms: _498  and  _499
REMARK  210  A    between atoms: _498  and  _501
REMARK  211  A    between atoms: _501  and  _502
REMARK  212  A    between atoms: _506  and  _507
REMARK  213  A    between atoms: _512  and  _514
REMARK  214  A    between atoms: _514  and  _515
REMARK  215  A    between atoms: _514  and  _517
REMARK  216  A    between atoms: _517  and  _518
REMARK  217  A    between atoms: _521  and  _523
REMARK  218  A    between atoms: _523  and  _524
REMARK  219  A    between atoms: _523  and  _526
REMARK  220  A    between atoms: _526  and  _527
REMARK  221  A    between atoms: _527  and  _528
REMARK  222  A    between atoms: _528  and  _529
REMARK  223  A    between atoms: _529  and  _530
REMARK  224  A    between atoms: _534  and  _536
REMARK  225  A    between atoms: _536  and  _537
REMARK  226  A    between atoms: _536  and  _539
REMARK  227  A    between atoms: _539  and  _540
REMARK  228  A    between atoms: _540  and  _541
REMARK  229  A    between atoms: _546  and  _548
REMARK  230  A    between atoms: _548  and  _549
REMARK  231  A    between atoms: _548  and  _551
REMARK  232  A    between atoms: _551  and  _552
REMARK  233  A    between atoms: _555  and  _557
REMARK  234  A    between atoms: _557  and  _558
REMARK  235  A    between atoms: _557  and  _560
REMARK  236  A    between atoms: _560  and  _561
REMARK  237  A    between atoms: _564  and  _566
REMARK  238  A    between atoms: _566  and  _567
REMARK  239  A    between atoms: _566  and  _569
REMARK  240  A    between atoms: _569  and  _570
REMARK  241  A    between atoms: _575  and  _577
REMARK  242  A    between atoms: _577  and  _578
REMARK  243  A    between atoms: _577  and  _580
REMARK  244  A    between atoms: _580  and  _581
REMARK  245  A    between atoms: _584  and  _586
REMARK  246  A    between atoms: _586  and  _587
REMARK  247  A    between atoms: _586  and  _589
REMARK  248  A    between atoms: _589  and  _590
REMARK  249  A    between atoms: _590  and  _591
REMARK  250  A    between atoms: _596  and  _598
REMARK  251  A    between atoms: _598  and  _599
REMARK  252  A    between atoms: _601  and  _603
REMARK  253  A    between atoms: _603  and  _604
REMARK  254  A    between atoms: _603  and  _606
REMARK  255  A    between atoms: _606  and  _607
REMARK  256  A    between atoms: _612  and  _614
REMARK  257  A    between atoms: _614  and  _615
REMARK  258  A    between atoms: _614  and  _617
REMARK  259  A    between atoms: _617  and  _618
REMARK  260  A    between atoms: _621  and  _623
REMARK  261  A    between atoms: _623  and  _624
REMARK  262  A    between atoms: _623  and  _626
REMARK  263  A    between atoms: _626  and  _627
REMARK                            x       y       z     vdW  Elec       q    Type
REMARK                         _______ _______ _______ _____ _____    ______ ____
ROOT
ATOM      1  O   HOH     1      87.566  81.893 173.661  0.00  0.00    +0.000 OA
ENDROOT
TORSDOF 0
REMARK  Name = ../refined-set-2016/3d2e/3d2e_pocket.pdb
REMARK  263 active torsions:
REMARK  status: ('A' for Active; 'I' for Inactive)
REMARK    1  A    between atoms: _1  and  _3
REMARK    2  A    between atoms: _3  and  _4
REMARK    3  A    between atoms: _3  and  _6
REMARK    4  A    between atoms: _6  and  _7
REMARK    5  A    between atoms: _10  and  _12
REMARK    6  A    between atoms: _12  and  _13
REMARK    7  A    between atoms: _12  and  _15
REMARK    8  A    between atoms: _15  and  _16
REMARK    9  A    between atoms: _19  and  _21
REMARK   10  A    between atoms: _21  and  _22
REMARK   11  A    between atoms: _24  and  _26
REMARK   12  A    between atoms: _26  and  _27
REMARK   13  A    between atoms: _26  and  _29
REMARK   14  A    between atoms: _29  and  _30
REMARK   15  A    between atoms: _35  and  _37
REMARK   16  A    between atoms: _37  and  _38
REMARK   17  A    between atoms: _37  and  _40
REMARK   18  A    between atoms: _40  and  _41
REMARK   19  A    between atoms: _46  and  _48
REMARK   20  A    between atoms: _48  and  _49
REMARK   21  A    between atoms: _48  and  _51
REMARK   22  A    between atoms: _51  and  _52
REMARK   23  A    between atoms: _57  and  _59
REMARK   24  A    between atoms: _59  and  _60
REMARK   25  A    between atoms: _59  and  _62
REMARK   26  A    between atoms: _62  and  _63
REMARK   27  A    between atoms: _65  and  _67
REMARK   28  A    between atoms: _67  and  _68
REMARK   29  A    between atoms: _67  and  _70
REMARK   30  A    between atoms: _73  and  _75
REMARK   31  A    between atoms: _75  and  _76
REMARK   32  A    between atoms: _75  and  _78
REMARK   33  A    between atoms: _78  and  _79
REMARK   34  A    between atoms: _81  and  _83
REMARK   35  A    between atoms: _83  and  _84
REMARK   36  A    between atoms: _83  and  _86
REMARK   37  A    between atoms: _86  and  _87
REMARK   38  A    between atoms: _90  and  _92
REMARK   39  A    between atoms: _92  and  _93
REMARK   40  A    between atoms: _92  and  _95
REMARK   41  A    between atoms: _95  and  _96
REMARK   42  A    between atoms: _98  and  _100
REMARK   43  A    between atoms: _100  and  _101
REMARK   44  A    between atoms: _100  and  _103
REMARK   45  A    between atoms: _103  and  _104
REMARK   46  A    between atoms: _104  and  _105
REMARK   47  A    between atoms: _105  and  _106
REMARK   48  A    between atoms: _106  and  _107
REMARK   49  A    between atoms: _111  and  _113
REMARK   50  A    between atoms: _113  and  _114
REMARK   51  A    between atoms: _113  and  _116
REMARK   52  A    between atoms: _116  and  _117
REMARK   53  A    between atoms: _117  and  _118
REMARK   54  A    between atoms: _118  and  _119
REMARK   55  A    between atoms: _128  and  _130
REMARK   56  A    between atoms: _130  and  _131
REMARK   57  A    between atoms: _134  and  _136
REMARK   58  A    between atoms: _136  and  _137
REMARK   59  A    between atoms: _136  and  _139
REMARK   60  A    between atoms: _143  and  _144
REMARK   61  A    between atoms: _149  and  _151
REMARK   62  A    between atoms: _151  and  _152
REMARK   63  A    between atoms: _151  and  _154
REMARK   64  A    between atoms: _154  and  _155
REMARK   65  A    between atoms: _165  and  _167
REMARK   66  A    between atoms: _167  and  _168
REMARK   67  A    between atoms: _167  and  _170
REMARK   68  A    between atoms: _170  and  _171
REMARK   69  A    between atoms: _174  and  _176
REMARK   70  A    between atoms: _176  and  _177
REMARK   71  A    between atoms: _176  and  _179
REMARK   72  A    between atoms: _179  and  _180
REMARK   73  A    between atoms: _183  and  _185
REMARK   74  A    between atoms: _185  and  _186
REMARK   75  A    between atoms: _185  and  _188
REMARK   76  A    between atoms: _188  and  _189
REMARK   77  A    between atoms: _192  and  _194
REMARK   78  A    between atoms: _194  and  _195
REMARK   79  A    between atoms: _197  and  _199
REMARK   80  A    between atoms: _199  and  _200
REMARK   81  A    between atoms: _199  and  _202
REMARK   82  A    between atoms: _202  and  _203
REMARK   83  A    between atoms: _208  and  _210
REMARK   84  A    between atoms: _210  and  _211
REMARK   85  A    between atoms: _210  and  _213
REMARK   86  A    between atoms: _213  and  _214
REMARK   87  A    between atoms: _216  and  _218
REMARK   88  A    between atoms: _218  and  _219
REMARK   89  A    between atoms: _218  and  _221
REMARK   90  A    between atoms: _221  and  _222
REMARK   91  A    between atoms: _224  and  _226
REMARK   92  A    between atoms: _226  and  _227
REMARK   93  A    between atoms: _226  and  _229
REMARK   94  A    between atoms: _229  and  _230
REMARK   95  A    between atoms: _235  and  _236
REMARK   96  A    between atoms: _238  and  _240
REMARK   97  A    between atoms: _240  and  _241
REMARK   98  A    between atoms: _240  and  _243
REMARK   99  A    between atoms: _243  and  _244
REMARK  100  A    between atoms: _247  and  _249
REMARK  101  A    between atoms: _249  and  _250
REMARK  102  A    between atoms: _249  and  _252
REMARK  103  A    between atoms: _252  and  _253
REMARK  104  A    between atoms: _256  and  _258
REMARK  105  A    between atoms: _258  and  _259
REMARK  106  A    between atoms: _258  and  _261
REMARK  107  A    between atoms: _261  and  _262
REMARK  108  A    between atoms: _262  and  _263
REMARK  109  A    between atoms: _263  and  _264
REMARK  110  A    between atoms: _264  and  _265
REMARK  111  A    between atoms: _269  and  _271
REMARK  112  A    between atoms: _271  and  _272
REMARK  113  A    between atoms: _271  and  _274
REMARK  114  A    between atoms: _274  and  _275
REMARK  115  A    between atoms: _281  and  _283
REMARK  116  A    between atoms: _283  and  _284
REMARK  117  A    between atoms: _286  and  _288
REMARK  118  A    between atoms: _288  and  _289
REMARK  119  A    between atoms: _291  and  _293
REMARK  120  A    between atoms: _293  and  _294
REMARK  121  A    between atoms: _293  and  _296
REMARK  122  A    between atoms: _296  and  _297
REMARK  123  A    between atoms: _297  and  _298
REMARK  124  A    between atoms: _298  and  _299
REMARK  125  A    between atoms: _308  and  _310
REMARK  126  A    between atoms: _310  and  _311
REMARK  127  A    between atoms: _310  and  _313
REMARK  128  A    between atoms: _313  and  _314
REMARK  129  A    between atoms: _317  and  _319
REMARK  130  A    between atoms: _319  and  _320
REMARK  131  A    between atoms: _319  and  _322
REMARK  132  A    between atoms: _322  and  _323
REMARK  133  A    between atoms: _329  and  _331
REMARK  134  A    between atoms: _331  and  _332
REMARK  135  A    between atoms: _331  and  _334
REMARK  136  A    between atoms: _334  and  _335
REMARK  137  A    between atoms: _338  and  _340
REMARK  138  A    between atoms: _340  and  _341
REMARK  139  A    between atoms: _344  and  _346
REMARK  140  A    between atoms: _346  and  _347
REMARK  141  A    between atoms: _346  and  _349
REMARK  142  A    between atoms: _349  and  _350
REMARK  143  A    between atoms: _350  and  _351
REMARK  144  A    between atoms: _354  and  _356
REMARK  145  A    between atoms: _356  and  _357
REMARK  146  A    between atoms: _356  and  _359
REMARK  147  A    between atoms: _359  and  _360
REMARK  148  A    between atoms: _360  and  _361
REMARK  149  A    between atoms: _361  and  _362
REMARK  150  A    between atoms: _362  and  _363
REMARK  151  A    between atoms: _367  and  _369
REMARK  152  A    between atoms: _369  and  _370
REMARK  153  A    between atoms: _369  and  _372
REMARK  154  A    between atoms: _372  and  _373
REMARK  155  A    between atoms: _376  and  _378
REMARK  156  A    between atoms: _378  and  _379
REMARK  157  A    between atoms: _378  and  _381
REMARK  158  A    between atoms: _381  and  _382
REMARK  159  A    between atoms: _382  and  _383
REMARK  160  A    between atoms: _383  and  _384
REMARK  161  A    between atoms: _384  and  _385
REMARK  162  A    between atoms: _389  and  _391
REMARK  163  A    between atoms: _391  and  _392
REMARK  164  A    between atoms: _391  and  _394
REMARK  165  A    between atoms: _394  and  _395
REMARK  166  A    between atoms: _395  and  _396
REMARK  167  A    between atoms: _396  and  _397
REMARK  168  A    between atoms: _397  and  _398
REMARK  169  A    between atoms: _402  and  _404
REMARK  170  A    between atoms: _404  and  _405
REMARK  171  A    between atoms: _404  and  _407
REMARK  172  A    between atoms: _410  and  _412
REMARK  173  A    between atoms: _412  and  _413
REMARK  174  A    between atoms: _412  and  _415
REMARK  175  A    between atoms: _415  and  _416
REMARK  176  A    between atoms: _419  and  _421
REMARK  177  A    between atoms: _421  and  _422
REMARK  178  A    between atoms: _421  and  _424
REMARK  179  A    between atoms: _424  and  _425
REMARK  180  A    between atoms: _427  and  _429
REMARK  181  A    between atoms: _429  and  _430
REMARK  182  A    between atoms: _433  and  _435
REMARK  183  A    between atoms: _435  and  _436
REMARK  184  A    between atoms: _435  and  _438
REMARK  185  A    between atoms: _438  and  _439
REMARK  186  A    between atoms: _442  and  _444
REMARK  187  A    between atoms: _444  and  _445
REMARK  188  A    between atoms: _444  and  _447
REMARK  189  A    between atoms: _447  and  _448
REMARK  190  A    between atoms: _451  and  _453
REMARK  191  A    between atoms: _453  and  _454
REMARK  192  A    between atoms: _456  and  _458
REMARK  193  A    between atoms: _458  and  _459
REMARK  194  A    between atoms: _461  and  _463
REMARK  195  A    between atoms: _463  and  _464
REMARK  196  A    between atoms: _463  and  _466
REMARK  197  A    between atoms: _466  and  _467
REMARK  198  A    between atoms: _470  and  _472
REMARK  199  A    between atoms: _472  and  _473
REMARK  200  A    between atoms: _472  and  _475
REMARK  201  A    between atoms: _475  and  _476
REMARK  202  A    between atoms: _479  and  _481
REMARK  203  A    between atoms: _481  and  _482
REMARK  204  A    between atoms: _481  and  _484
REMARK  205  A    between atoms: _484  and  _485
REMARK  206  A    between atoms: _485  and  _486
REMARK  207  A    between atoms: _486  and  _487
REMARK  208  A    between atoms: _496  and  _498
REMARK  209  A    between atoms: _498  and  _499
REMARK  210  A    between atoms: _498  and  _501
REMARK  211  A    between atoms: _501  and  _502
REMARK  212  A    between atoms: _506  and  _507
REMARK  213  A    between atoms: _512  and  _514
REMARK  214  A    between atoms: _514  and  _515
REMARK  215  A    between atoms: _514  and  _517
REMARK  216  A    between atoms: _517  and  _518
REMARK  217  A    between atoms: _521  and  _523
REMARK  218  A    between atoms: _523  and  _524
REMARK  219  A    between atoms: _523  and  _526
REMARK  220  A    between atoms: _526  and  _527
REMARK  221  A    between atoms: _527  and  _528
REMARK  222  A    between atoms: _528  and  _529
REMARK  223  A    between atoms: _529  and  _530
REMARK  224  A    between atoms: _534  and  _536
REMARK  225  A    between atoms: _536  and  _537
REMARK  226  A    between atoms: _536  and  _539
REMARK  227  A    between atoms: _539  and  _540
REMARK  228  A    between atoms: _540  and  _541
REMARK  229  A    between atoms: _546  and  _548
REMARK  230  A    between atoms: _548  and  _549
REMARK  231  A    between atoms: _548  and  _551
REMARK  232  A    between atoms: _551  and  _552
REMARK  233  A    between atoms: _555  and  _557
REMARK  234  A    between atoms: _557  and  _558
REMARK  235  A    between atoms: _557  and  _560
REMARK  236  A    between atoms: _560  and  _561
REMARK  237  A    between atoms: _564  and  _566
REMARK  238  A    between atoms: _566  and  _567
REMARK  239  A    between atoms: _566  and  _569
REMARK  240  A    between atoms: _569  and  _570
REMARK  241  A    between atoms: _575  and  _577
REMARK  242  A    between atoms: _577  and  _578
REMARK  243  A    between atoms: _577  and  _580
REMARK  244  A    between atoms: _580  and  _581
REMARK  245  A    between atoms: _584  and  _586
REMARK  246  A    between atoms: _586  and  _587
REMARK  247  A    between atoms: _586  and  _589
REMARK  248  A    between atoms: _589  and  _590
REMARK  249  A    between atoms: _590  and  _591
REMARK  250  A    between atoms: _596  and  _598
REMARK  251  A    between atoms: _598  and  _599
REMARK  252  A    between atoms: _601  and  _603
REMARK  253  A    between atoms: _603  and  _604
REMARK  254  A    between atoms: _603  and  _606
REMARK  255  A    between atoms: _606  and  _607
REMARK  256  A    between atoms: _612  and  _614
REMARK  257  A    between atoms: _614  and  _615
REMARK  258  A    between atoms: _614  and  _617
REMARK  259  A    between atoms: _617  and  _618
REMARK  260  A    between atoms: _621  and  _623
REMARK  261  A    between atoms: _623  and  _624
REMARK  262  A    between atoms: _623  and  _626
REMARK  263  A    between atoms: _626  and  _627
REMARK                            x       y       z     vdW  Elec       q    Type
REMARK                         _______ _______ _______ _____ _____    ______ ____
ROOT
ATOM      1  O   HOH     1      89.244  72.296 182.002  0.00  0.00    +0.000 OA
ENDROOT
TORSDOF 0
REMARK  Name = ../refined-set-2016/3d2e/3d2e_pocket.pdb
REMARK  263 active torsions:
REMARK  status: ('A' for Active; 'I' for Inactive)
REMARK    1  A    between atoms: _1  and  _3
REMARK    2  A    between atoms: _3  and  _4
REMARK    3  A    between atoms: _3  and  _6
REMARK    4  A    between atoms: _6  and  _7
REMARK    5  A    between atoms: _10  and  _12
REMARK    6  A    between atoms: _12  and  _13
REMARK    7  A    between atoms: _12  and  _15
REMARK    8  A    between atoms: _15  and  _16
REMARK    9  A    between atoms: _19  and  _21
REMARK   10  A    between atoms: _21  and  _22
REMARK   11  A    between atoms: _24  and  _26
REMARK   12  A    between atoms: _26  and  _27
REMARK   13  A    between atoms: _26  and  _29
REMARK   14  A    between atoms: _29  and  _30
REMARK   15  A    between atoms: _35  and  _37
REMARK   16  A    between atoms: _37  and  _38
REMARK   17  A    between atoms: _37  and  _40
REMARK   18  A    between atoms: _40  and  _41
REMARK   19  A    between atoms: _46  and  _48
REMARK   20  A    between atoms: _48  and  _49
REMARK   21  A    between atoms: _48  and  _51
REMARK   22  A    between atoms: _51  and  _52
REMARK   23  A    between atoms: _57  and  _59
REMARK   24  A    between atoms: _59  and  _60
REMARK   25  A    between atoms: _59  and  _62
REMARK   26  A    between atoms: _62  and  _63
REMARK   27  A    between atoms: _65  and  _67
REMARK   28  A    between atoms: _67  and  _68
REMARK   29  A    between atoms: _67  and  _70
REMARK   30  A    between atoms: _73  and  _75
REMARK   31  A    between atoms: _75  and  _76
REMARK   32  A    between atoms: _75  and  _78
REMARK   33  A    between atoms: _78  and  _79
REMARK   34  A    between atoms: _81  and  _83
REMARK   35  A    between atoms: _83  and  _84
REMARK   36  A    between atoms: _83  and  _86
REMARK   37  A    between atoms: _86  and  _87
REMARK   38  A    between atoms: _90  and  _92
REMARK   39  A    between atoms: _92  and  _93
REMARK   40  A    between atoms: _92  and  _95
REMARK   41  A    between atoms: _95  and  _96
REMARK   42  A    between atoms: _98  and  _100
REMARK   43  A    between atoms: _100  and  _101
REMARK   44  A    between atoms: _100  and  _103
REMARK   45  A    between atoms: _103  and  _104
REMARK   46  A    between atoms: _104  and  _105
REMARK   47  A    between atoms: _105  and  _106
REMARK   48  A    between atoms: _106  and  _107
REMARK   49  A    between atoms: _111  and  _113
REMARK   50  A    between atoms: _113  and  _114
REMARK   51  A    between atoms: _113  and  _116
REMARK   52  A    between atoms: _116  and  _117
REMARK   53  A    between atoms: _117  and  _118
REMARK   54  A    between atoms: _118  and  _119
REMARK   55  A    between atoms: _128  and  _130
REMARK   56  A    between atoms: _130  and  _131
REMARK   57  A    between atoms: _134  and  _136
REMARK   58  A    between atoms: _136  and  _137
REMARK   59  A    between atoms: _136  and  _139
REMARK   60  A    between atoms: _143  and  _144
REMARK   61  A    between atoms: _149  and  _151
REMARK   62  A    between atoms: _151  and  _152
REMARK   63  A    between atoms: _151  and  _154
REMARK   64  A    between atoms: _154  and  _155
REMARK   65  A    between atoms: _165  and  _167
REMARK   66  A    between atoms: _167  and  _168
REMARK   67  A    between atoms: _167  and  _170
REMARK   68  A    between atoms: _170  and  _171
REMARK   69  A    between atoms: _174  and  _176
REMARK   70  A    between atoms: _176  and  _177
REMARK   71  A    between atoms: _176  and  _179
REMARK   72  A    between atoms: _179  and  _180
REMARK   73  A    between atoms: _183  and  _185
REMARK   74  A    between atoms: _185  and  _186
REMARK   75  A    between atoms: _185  and  _188
REMARK   76  A    between atoms: _188  and  _189
REMARK   77  A    between atoms: _192  and  _194
REMARK   78  A    between atoms: _194  and  _195
REMARK   79  A    between atoms: _197  and  _199
REMARK   80  A    between atoms: _199  and  _200
REMARK   81  A    between atoms: _199  and  _202
REMARK   82  A    between atoms: _202  and  _203
REMARK   83  A    between atoms: _208  and  _210
REMARK   84  A    between atoms: _210  and  _211
REMARK   85  A    between atoms: _210  and  _213
REMARK   86  A    between atoms: _213  and  _214
REMARK   87  A    between atoms: _216  and  _218
REMARK   88  A    between atoms: _218  and  _219
REMARK   89  A    between atoms: _218  and  _221
REMARK   90  A    between atoms: _221  and  _222
REMARK   91  A    between atoms: _224  and  _226
REMARK   92  A    between atoms: _226  and  _227
REMARK   93  A    between atoms: _226  and  _229
REMARK   94  A    between atoms: _229  and  _230
REMARK   95  A    between atoms: _235  and  _236
REMARK   96  A    between atoms: _238  and  _240
REMARK   97  A    between atoms: _240  and  _241
REMARK   98  A    between atoms: _240  and  _243
REMARK   99  A    between atoms: _243  and  _244
REMARK  100  A    between atoms: _247  and  _249
REMARK  101  A    between atoms: _249  and  _250
REMARK  102  A    between atoms: _249  and  _252
REMARK  103  A    between atoms: _252  and  _253
REMARK  104  A    between atoms: _256  and  _258
REMARK  105  A    between atoms: _258  and  _259
REMARK  106  A    between atoms: _258  and  _261
REMARK  107  A    between atoms: _261  and  _262
REMARK  108  A    between atoms: _262  and  _263
REMARK  109  A    between atoms: _263  and  _264
REMARK  110  A    between atoms: _264  and  _265
REMARK  111  A    between atoms: _269  and  _271
REMARK  112  A    between atoms: _271  and  _272
REMARK  113  A    between atoms: _271  and  _274
REMARK  114  A    between atoms: _274  and  _275
REMARK  115  A    between atoms: _281  and  _283
REMARK  116  A    between atoms: _283  and  _284
REMARK  117  A    between atoms: _286  and  _288
REMARK  118  A    between atoms: _288  and  _289
REMARK  119  A    between atoms: _291  and  _293
REMARK  120  A    between atoms: _293  and  _294
REMARK  121  A    between atoms: _293  and  _296
REMARK  122  A    between atoms: _296  and  _297
REMARK  123  A    between atoms: _297  and  _298
REMARK  124  A    between atoms: _298  and  _299
REMARK  125  A    between atoms: _308  and  _310
REMARK  126  A    between atoms: _310  and  _311
REMARK  127  A    between atoms: _310  and  _313
REMARK  128  A    between atoms: _313  and  _314
REMARK  129  A    between atoms: _317  and  _319
REMARK  130  A    between atoms: _319  and  _320
REMARK  131  A    between atoms: _319  and  _322
REMARK  132  A    between atoms: _322  and  _323
REMARK  133  A    between atoms: _329  and  _331
REMARK  134  A    between atoms: _331  and  _332
REMARK  135  A    between atoms: _331  and  _334
REMARK  136  A    between atoms: _334  and  _335
REMARK  137  A    between atoms: _338  and  _340
REMARK  138  A    between atoms: _340  and  _341
REMARK  139  A    between atoms: _344  and  _346
REMARK  140  A    between atoms: _346  and  _347
REMARK  141  A    between atoms: _346  and  _349
REMARK  142  A    between atoms: _349  and  _350
REMARK  143  A    between atoms: _350  and  _351
REMARK  144  A    between atoms: _354  and  _356
REMARK  145  A    between atoms: _356  and  _357
REMARK  146  A    between atoms: _356  and  _359
REMARK  147  A    between atoms: _359  and  _360
REMARK  148  A    between atoms: _360  and  _361
REMARK  149  A    between atoms: _361  and  _362
REMARK  150  A    between atoms: _362  and  _363
REMARK  151  A    between atoms: _367  and  _369
REMARK  152  A    between atoms: _369  and  _370
REMARK  153  A    between atoms: _369  and  _372
REMARK  154  A    between atoms: _372  and  _373
REMARK  155  A    between atoms: _376  and  _378
REMARK  156  A    between atoms: _378  and  _379
REMARK  157  A    between atoms: _378  and  _381
REMARK  158  A    between atoms: _381  and  _382
REMARK  159  A    between atoms: _382  and  _383
REMARK  160  A    between atoms: _383  and  _384
REMARK  161  A    between atoms: _384  and  _385
REMARK  162  A    between atoms: _389  and  _391
REMARK  163  A    between atoms: _391  and  _392
REMARK  164  A    between atoms: _391  and  _394
REMARK  165  A    between atoms: _394  and  _395
REMARK  166  A    between atoms: _395  and  _396
REMARK  167  A    between atoms: _396  and  _397
REMARK  168  A    between atoms: _397  and  _398
REMARK  169  A    between atoms: _402  and  _404
REMARK  170  A    between atoms: _404  and  _405
REMARK  171  A    between atoms: _404  and  _407
REMARK  172  A    between atoms: _410  and  _412
REMARK  173  A    between atoms: _412  and  _413
REMARK  174  A    between atoms: _412  and  _415
REMARK  175  A    between atoms: _415  and  _416
REMARK  176  A    between atoms: _419  and  _421
REMARK  177  A    between atoms: _421  and  _422
REMARK  178  A    between atoms: _421  and  _424
REMARK  179  A    between atoms: _424  and  _425
REMARK  180  A    between atoms: _427  and  _429
REMARK  181  A    between atoms: _429  and  _430
REMARK  182  A    between atoms: _433  and  _435
REMARK  183  A    between atoms: _435  and  _436
REMARK  184  A    between atoms: _435  and  _438
REMARK  185  A    between atoms: _438  and  _439
REMARK  186  A    between atoms: _442  and  _444
REMARK  187  A    between atoms: _444  and  _445
REMARK  188  A    between atoms: _444  and  _447
REMARK  189  A    between atoms: _447  and  _448
REMARK  190  A    between atoms: _451  and  _453
REMARK  191  A    between atoms: _453  and  _454
REMARK  192  A    between atoms: _456  and  _458
REMARK  193  A    between atoms: _458  and  _459
REMARK  194  A    between atoms: _461  and  _463
REMARK  195  A    between atoms: _463  and  _464
REMARK  196  A    between atoms: _463  and  _466
REMARK  197  A    between atoms: _466  and  _467
REMARK  198  A    between atoms: _470  and  _472
REMARK  199  A    between atoms: _472  and  _473
REMARK  200  A    between atoms: _472  and  _475
REMARK  201  A    between atoms: _475  and  _476
REMARK  202  A    between atoms: _479  and  _481
REMARK  203  A    between atoms: _481  and  _482
REMARK  204  A    between atoms: _481  and  _484
REMARK  205  A    between atoms: _484  and  _485
REMARK  206  A    between atoms: _485  and  _486
REMARK  207  A    between atoms: _486  and  _487
REMARK  208  A    between atoms: _496  and  _498
REMARK  209  A    between atoms: _498  and  _499
REMARK  210  A    between atoms: _498  and  _501
REMARK  211  A    between atoms: _501  and  _502
REMARK  212  A    between atoms: _506  and  _507
REMARK  213  A    between atoms: _512  and  _514
REMARK  214  A    between atoms: _514  and  _515
REMARK  215  A    between atoms: _514  and  _517
REMARK  216  A    between atoms: _517  and  _518
REMARK  217  A    between atoms: _521  and  _523
REMARK  218  A    between atoms: _523  and  _524
REMARK  219  A    between atoms: _523  and  _526
REMARK  220  A    between atoms: _526  and  _527
REMARK  221  A    between atoms: _527  and  _528
REMARK  222  A    between atoms: _528  and  _529
REMARK  223  A    between atoms: _529  and  _530
REMARK  224  A    between atoms: _534  and  _536
REMARK  225  A    between atoms: _536  and  _537
REMARK  226  A    between atoms: _536  and  _539
REMARK  227  A    between atoms: _539  and  _540
REMARK  228  A    between atoms: _540  and  _541
REMARK  229  A    between atoms: _546  and  _548
REMARK  230  A    between atoms: _548  and  _549
REMARK  231  A    between atoms: _548  and  _551
REMARK  232  A    between atoms: _551  and  _552
REMARK  233  A    between atoms: _555  and  _557
REMARK  234  A    between atoms: _557  and  _558
REMARK  235  A    between atoms: _557  and  _560
REMARK  236  A    between atoms: _560  and  _561
REMARK  237  A    between atoms: _564  and  _566
REMARK  238  A    between atoms: _566  and  _567
REMARK  239  A    between atoms: _566  and  _569
REMARK  240  A    between atoms: _569  and  _570
REMARK  241  A    between atoms: _575  and  _577
REMARK  242  A    between atoms: _577  and  _578
REMARK  243  A    between atoms: _577  and  _580
REMARK  244  A    between atoms: _580  and  _581
REMARK  245  A    between atoms: _584  and  _586
REMARK  246  A    between atoms: _586  and  _587
REMARK  247  A    between atoms: _586  and  _589
REMARK  248  A    between atoms: _589  and  _590
REMARK  249  A    between atoms: _590  and  _591
REMARK  250  A    between atoms: _596  and  _598
REMARK  251  A    between atoms: _598  and  _599
REMARK  252  A    between atoms: _601  and  _603
REMARK  253  A    between atoms: _603  and  _604
REMARK  254  A    between atoms: _603  and  _606
REMARK  255  A    between atoms: _606  and  _607
REMARK  256  A    between atoms: _612  and  _614
REMARK  257  A    between atoms: _614  and  _615
REMARK  258  A    between atoms: _614  and  _617
REMARK  259  A    between atoms: _617  and  _618
REMARK  260  A    between atoms: _621  and  _623
REMARK  261  A    between atoms: _623  and  _624
REMARK  262  A    between atoms: _623  and  _626
REMARK  263  A    between atoms: _626  and  _627
REMARK                            x       y       z     vdW  Elec       q    Type
REMARK                         _______ _______ _______ _____ _____    ______ ____
ROOT
ATOM      1  O   HOH     1      81.898  85.786 186.338  0.00  0.00    +0.000 OA
ENDROOT
TORSDOF 0
REMARK  Name = ../refined-set-2016/3d2e/3d2e_pocket.pdb
REMARK  263 active torsions:
REMARK  status: ('A' for Active; 'I' for Inactive)
REMARK    1  A    between atoms: _1  and  _3
REMARK    2  A    between atoms: _3  and  _4
REMARK    3  A    between atoms: _3  and  _6
REMARK    4  A    between atoms: _6  and  _7
REMARK    5  A    between atoms: _10  and  _12
REMARK    6  A    between atoms: _12  and  _13
REMARK    7  A    between atoms: _12  and  _15
REMARK    8  A    between atoms: _15  and  _16
REMARK    9  A    between atoms: _19  and  _21
REMARK   10  A    between atoms: _21  and  _22
REMARK   11  A    between atoms: _24  and  _26
REMARK   12  A    between atoms: _26  and  _27
REMARK   13  A    between atoms: _26  and  _29
REMARK   14  A    between atoms: _29  and  _30
REMARK   15  A    between atoms: _35  and  _37
REMARK   16  A    between atoms: _37  and  _38
REMARK   17  A    between atoms: _37  and  _40
REMARK   18  A    between atoms: _40  and  _41
REMARK   19  A    between atoms: _46  and  _48
REMARK   20  A    between atoms: _48  and  _49
REMARK   21  A    between atoms: _48  and  _51
REMARK   22  A    between atoms: _51  and  _52
REMARK   23  A    between atoms: _57  and  _59
REMARK   24  A    between atoms: _59  and  _60
REMARK   25  A    between atoms: _59  and  _62
REMARK   26  A    between atoms: _62  and  _63
REMARK   27  A    between atoms: _65  and  _67
REMARK   28  A    between atoms: _67  and  _68
REMARK   29  A    between atoms: _67  and  _70
REMARK   30  A    between atoms: _73  and  _75
REMARK   31  A    between atoms: _75  and  _76
REMARK   32  A    between atoms: _75  and  _78
REMARK   33  A    between atoms: _78  and  _79
REMARK   34  A    between atoms: _81  and  _83
REMARK   35  A    between atoms: _83  and  _84
REMARK   36  A    between atoms: _83  and  _86
REMARK   37  A    between atoms: _86  and  _87
REMARK   38  A    between atoms: _90  and  _92
REMARK   39  A    between atoms: _92  and  _93
REMARK   40  A    between atoms: _92  and  _95
REMARK   41  A    between atoms: _95  and  _96
REMARK   42  A    between atoms: _98  and  _100
REMARK   43  A    between atoms: _100  and  _101
REMARK   44  A    between atoms: _100  and  _103
REMARK   45  A    between atoms: _103  and  _104
REMARK   46  A    between atoms: _104  and  _105
REMARK   47  A    between atoms: _105  and  _106
REMARK   48  A    between atoms: _106  and  _107
REMARK   49  A    between atoms: _111  and  _113
REMARK   50  A    between atoms: _113  and  _114
REMARK   51  A    between atoms: _113  and  _116
REMARK   52  A    between atoms: _116  and  _117
REMARK   53  A    between atoms: _117  and  _118
REMARK   54  A    between atoms: _118  and  _119
REMARK   55  A    between atoms: _128  and  _130
REMARK   56  A    between atoms: _130  and  _131
REMARK   57  A    between atoms: _134  and  _136
REMARK   58  A    between atoms: _136  and  _137
REMARK   59  A    between atoms: _136  and  _139
REMARK   60  A    between atoms: _143  and  _144
REMARK   61  A    between atoms: _149  and  _151
REMARK   62  A    between atoms: _151  and  _152
REMARK   63  A    between atoms: _151  and  _154
REMARK   64  A    between atoms: _154  and  _155
REMARK   65  A    between atoms: _165  and  _167
REMARK   66  A    between atoms: _167  and  _168
REMARK   67  A    between atoms: _167  and  _170
REMARK   68  A    between atoms: _170  and  _171
REMARK   69  A    between atoms: _174  and  _176
REMARK   70  A    between atoms: _176  and  _177
REMARK   71  A    between atoms: _176  and  _179
REMARK   72  A    between atoms: _179  and  _180
REMARK   73  A    between atoms: _183  and  _185
REMARK   74  A    between atoms: _185  and  _186
REMARK   75  A    between atoms: _185  and  _188
REMARK   76  A    between atoms: _188  and  _189
REMARK   77  A    between atoms: _192  and  _194
REMARK   78  A    between atoms: _194  and  _195
REMARK   79  A    between atoms: _197  and  _199
REMARK   80  A    between atoms: _199  and  _200
REMARK   81  A    between atoms: _199  and  _202
REMARK   82  A    between atoms: _202  and  _203
REMARK   83  A    between atoms: _208  and  _210
REMARK   84  A    between atoms: _210  and  _211
REMARK   85  A    between atoms: _210  and  _213
REMARK   86  A    between atoms: _213  and  _214
REMARK   87  A    between atoms: _216  and  _218
REMARK   88  A    between atoms: _218  and  _219
REMARK   89  A    between atoms: _218  and  _221
REMARK   90  A    between atoms: _221  and  _222
REMARK   91  A    between atoms: _224  and  _226
REMARK   92  A    between atoms: _226  and  _227
REMARK   93  A    between atoms: _226  and  _229
REMARK   94  A    between atoms: _229  and  _230
REMARK   95  A    between atoms: _235  and  _236
REMARK   96  A    between atoms: _238  and  _240
REMARK   97  A    between atoms: _240  and  _241
REMARK   98  A    between atoms: _240  and  _243
REMARK   99  A    between atoms: _243  and  _244
REMARK  100  A    between atoms: _247  and  _249
REMARK  101  A    between atoms: _249  and  _250
REMARK  102  A    between atoms: _249  and  _252
REMARK  103  A    between atoms: _252  and  _253
REMARK  104  A    between atoms: _256  and  _258
REMARK  105  A    between atoms: _258  and  _259
REMARK  106  A    between atoms: _258  and  _261
REMARK  107  A    between atoms: _261  and  _262
REMARK  108  A    between atoms: _262  and  _263
REMARK  109  A    between atoms: _263  and  _264
REMARK  110  A    between atoms: _264  and  _265
REMARK  111  A    between atoms: _269  and  _271
REMARK  112  A    between atoms: _271  and  _272
REMARK  113  A    between atoms: _271  and  _274
REMARK  114  A    between atoms: _274  and  _275
REMARK  115  A    between atoms: _281  and  _283
REMARK  116  A    between atoms: _283  and  _284
REMARK  117  A    between atoms: _286  and  _288
REMARK  118  A    between atoms: _288  and  _289
REMARK  119  A    between atoms: _291  and  _293
REMARK  120  A    between atoms: _293  and  _294
REMARK  121  A    between atoms: _293  and  _296
REMARK  122  A    between atoms: _296  and  _297
REMARK  123  A    between atoms: _297  and  _298
REMARK  124  A    between atoms: _298  and  _299
REMARK  125  A    between atoms: _308  and  _310
REMARK  126  A    between atoms: _310  and  _311
REMARK  127  A    between atoms: _310  and  _313
REMARK  128  A    between atoms: _313  and  _314
REMARK  129  A    between atoms: _317  and  _319
REMARK  130  A    between atoms: _319  and  _320
REMARK  131  A    between atoms: _319  and  _322
REMARK  132  A    between atoms: _322  and  _323
REMARK  133  A    between atoms: _329  and  _331
REMARK  134  A    between atoms: _331  and  _332
REMARK  135  A    between atoms: _331  and  _334
REMARK  136  A    between atoms: _334  and  _335
REMARK  137  A    between atoms: _338  and  _340
REMARK  138  A    between atoms: _340  and  _341
REMARK  139  A    between atoms: _344  and  _346
REMARK  140  A    between atoms: _346  and  _347
REMARK  141  A    between atoms: _346  and  _349
REMARK  142  A    between atoms: _349  and  _350
REMARK  143  A    between atoms: _350  and  _351
REMARK  144  A    between atoms: _354  and  _356
REMARK  145  A    between atoms: _356  and  _357
REMARK  146  A    between atoms: _356  and  _359
REMARK  147  A    between atoms: _359  and  _360
REMARK  148  A    between atoms: _360  and  _361
REMARK  149  A    between atoms: _361  and  _362
REMARK  150  A    between atoms: _362  and  _363
REMARK  151  A    between atoms: _367  and  _369
REMARK  152  A    between atoms: _369  and  _370
REMARK  153  A    between atoms: _369  and  _372
REMARK  154  A    between atoms: _372  and  _373
REMARK  155  A    between atoms: _376  and  _378
REMARK  156  A    between atoms: _378  and  _379
REMARK  157  A    between atoms: _378  and  _381
REMARK  158  A    between atoms: _381  and  _382
REMARK  159  A    between atoms: _382  and  _383
REMARK  160  A    between atoms: _383  and  _384
REMARK  161  A    between atoms: _384  and  _385
REMARK  162  A    between atoms: _389  and  _391
REMARK  163  A    between atoms: _391  and  _392
REMARK  164  A    between atoms: _391  and  _394
REMARK  165  A    between atoms: _394  and  _395
REMARK  166  A    between atoms: _395  and  _396
REMARK  167  A    between atoms: _396  and  _397
REMARK  168  A    between atoms: _397  and  _398
REMARK  169  A    between atoms: _402  and  _404
REMARK  170  A    between atoms: _404  and  _405
REMARK  171  A    between atoms: _404  and  _407
REMARK  172  A    between atoms: _410  and  _412
REMARK  173  A    between atoms: _412  and  _413
REMARK  174  A    between atoms: _412  and  _415
REMARK  175  A    between atoms: _415  and  _416
REMARK  176  A    between atoms: _419  and  _421
REMARK  177  A    between atoms: _421  and  _422
REMARK  178  A    between atoms: _421  and  _424
REMARK  179  A    between atoms: _424  and  _425
REMARK  180  A    between atoms: _427  and  _429
REMARK  181  A    between atoms: _429  and  _430
REMARK  182  A    between atoms: _433  and  _435
REMARK  183  A    between atoms: _435  and  _436
REMARK  184  A    between atoms: _435  and  _438
REMARK  185  A    between atoms: _438  and  _439
REMARK  186  A    between atoms: _442  and  _444
REMARK  187  A    between atoms: _444  and  _445
REMARK  188  A    between atoms: _444  and  _447
REMARK  189  A    between atoms: _447  and  _448
REMARK  190  A    between atoms: _451  and  _453
REMARK  191  A    between atoms: _453  and  _454
REMARK  192  A    between atoms: _456  and  _458
REMARK  193  A    between atoms: _458  and  _459
REMARK  194  A    between atoms: _461  and  _463
REMARK  195  A    between atoms: _463  and  _464
REMARK  196  A    between atoms: _463  and  _466
REMARK  197  A    between atoms: _466  and  _467
REMARK  198  A    between atoms: _470  and  _472
REMARK  199  A    between atoms: _472  and  _473
REMARK  200  A    between atoms: _472  and  _475
REMARK  201  A    between atoms: _475  and  _476
REMARK  202  A    between atoms: _479  and  _481
REMARK  203  A    between atoms: _481  and  _482
REMARK  204  A    between atoms: _481  and  _484
REMARK  205  A    between atoms: _484  and  _485
REMARK  206  A    between atoms: _485  and  _486
REMARK  207  A    between atoms: _486  and  _487
REMARK  208  A    between atoms: _496  and  _498
REMARK  209  A    between atoms: _498  and  _499
REMARK  210  A    between atoms: _498  and  _501
REMARK  211  A    between atoms: _501  and  _502
REMARK  212  A    between atoms: _506  and  _507
REMARK  213  A    between atoms: _512  and  _514
REMARK  214  A    between atoms: _514  and  _515
REMARK  215  A    between atoms: _514  and  _517
REMARK  216  A    between atoms: _517  and  _518
REMARK  217  A    between atoms: _521  and  _523
REMARK  218  A    between atoms: _523  and  _524
REMARK  219  A    between atoms: _523  and  _526
REMARK  220  A    between atoms: _526  and  _527
REMARK  221  A    between atoms: _527  and  _528
REMARK  222  A    between atoms: _528  and  _529
REMARK  223  A    between atoms: _529  and  _530
REMARK  224  A    between atoms: _534  and  _536
REMARK  225  A    between atoms: _536  and  _537
REMARK  226  A    between atoms: _536  and  _539
REMARK  227  A    between atoms: _539  and  _540
REMARK  228  A    between atoms: _540  and  _541
REMARK  229  A    between atoms: _546  and  _548
REMARK  230  A    between atoms: _548  and  _549
REMARK  231  A    between atoms: _548  and  _551
REMARK  232  A    between atoms: _551  and  _552
REMARK  233  A    between atoms: _555  and  _557
REMARK  234  A    between atoms: _557  and  _558
REMARK  235  A    between atoms: _557  and  _560
REMARK  236  A    between atoms: _560  and  _561
REMARK  237  A    between atoms: _564  and  _566
REMARK  238  A    between atoms: _566  and  _567
REMARK  239  A    between atoms: _566  and  _569
REMARK  240  A    between atoms: _569  and  _570
REMARK  241  A    between atoms: _575  and  _577
REMARK  242  A    between atoms: _577  and  _578
REMARK  243  A    between atoms: _577  and  _580
REMARK  244  A    between atoms: _580  and  _581
REMARK  245  A    between atoms: _584  and  _586
REMARK  246  A    between atoms: _586  and  _587
REMARK  247  A    between atoms: _586  and  _589
REMARK  248  A    between atoms: _589  and  _590
REMARK  249  A    between atoms: _590  and  _591
REMARK  250  A    between atoms: _596  and  _598
REMARK  251  A    between atoms: _598  and  _599
REMARK  252  A    between atoms: _601  and  _603
REMARK  253  A    between atoms: _603  and  _604
REMARK  254  A    between atoms: _603  and  _606
REMARK  255  A    between atoms: _606  and  _607
REMARK  256  A    between atoms: _612  and  _614
REMARK  257  A    between atoms: _614  and  _615
REMARK  258  A    between atoms: _614  and  _617
REMARK  259  A    between atoms: _617  and  _618
REMARK  260  A    between atoms: _621  and  _623
REMARK  261  A    between atoms: _623  and  _624
REMARK  262  A    between atoms: _623  and  _626
REMARK  263  A    between atoms: _626  and  _627
REMARK                            x       y       z     vdW  Elec       q    Type
REMARK                         _______ _______ _______ _____ _____    ______ ____
ROOT
ATOM      1  O   HOH     1      86.769  72.716 182.956  0.00  0.00    +0.000 OA
ENDROOT
TORSDOF 0
REMARK  Name = ../refined-set-2016/3d2e/3d2e_pocket.pdb
REMARK  263 active torsions:
REMARK  status: ('A' for Active; 'I' for Inactive)
REMARK    1  A    between atoms: _1  and  _3
REMARK    2  A    between atoms: _3  and  _4
REMARK    3  A    between atoms: _3  and  _6
REMARK    4  A    between atoms: _6  and  _7
REMARK    5  A    between atoms: _10  and  _12
REMARK    6  A    between atoms: _12  and  _13
REMARK    7  A    between atoms: _12  and  _15
REMARK    8  A    between atoms: _15  and  _16
REMARK    9  A    between atoms: _19  and  _21
REMARK   10  A    between atoms: _21  and  _22
REMARK   11  A    between atoms: _24  and  _26
REMARK   12  A    between atoms: _26  and  _27
REMARK   13  A    between atoms: _26  and  _29
REMARK   14  A    between atoms: _29  and  _30
REMARK   15  A    between atoms: _35  and  _37
REMARK   16  A    between atoms: _37  and  _38
REMARK   17  A    between atoms: _37  and  _40
REMARK   18  A    between atoms: _40  and  _41
REMARK   19  A    between atoms: _46  and  _48
REMARK   20  A    between atoms: _48  and  _49
REMARK   21  A    between atoms: _48  and  _51
REMARK   22  A    between atoms: _51  and  _52
REMARK   23  A    between atoms: _57  and  _59
REMARK   24  A    between atoms: _59  and  _60
REMARK   25  A    between atoms: _59  and  _62
REMARK   26  A    between atoms: _62  and  _63
REMARK   27  A    between atoms: _65  and  _67
REMARK   28  A    between atoms: _67  and  _68
REMARK   29  A    between atoms: _67  and  _70
REMARK   30  A    between atoms: _73  and  _75
REMARK   31  A    between atoms: _75  and  _76
REMARK   32  A    between atoms: _75  and  _78
REMARK   33  A    between atoms: _78  and  _79
REMARK   34  A    between atoms: _81  and  _83
REMARK   35  A    between atoms: _83  and  _84
REMARK   36  A    between atoms: _83  and  _86
REMARK   37  A    between atoms: _86  and  _87
REMARK   38  A    between atoms: _90  and  _92
REMARK   39  A    between atoms: _92  and  _93
REMARK   40  A    between atoms: _92  and  _95
REMARK   41  A    between atoms: _95  and  _96
REMARK   42  A    between atoms: _98  and  _100
REMARK   43  A    between atoms: _100  and  _101
REMARK   44  A    between atoms: _100  and  _103
REMARK   45  A    between atoms: _103  and  _104
REMARK   46  A    between atoms: _104  and  _105
REMARK   47  A    between atoms: _105  and  _106
REMARK   48  A    between atoms: _106  and  _107
REMARK   49  A    between atoms: _111  and  _113
REMARK   50  A    between atoms: _113  and  _114
REMARK   51  A    between atoms: _113  and  _116
REMARK   52  A    between atoms: _116  and  _117
REMARK   53  A    between atoms: _117  and  _118
REMARK   54  A    between atoms: _118  and  _119
REMARK   55  A    between atoms: _128  and  _130
REMARK   56  A    between atoms: _130  and  _131
REMARK   57  A    between atoms: _134  and  _136
REMARK   58  A    between atoms: _136  and  _137
REMARK   59  A    between atoms: _136  and  _139
REMARK   60  A    between atoms: _143  and  _144
REMARK   61  A    between atoms: _149  and  _151
REMARK   62  A    between atoms: _151  and  _152
REMARK   63  A    between atoms: _151  and  _154
REMARK   64  A    between atoms: _154  and  _155
REMARK   65  A    between atoms: _165  and  _167
REMARK   66  A    between atoms: _167  and  _168
REMARK   67  A    between atoms: _167  and  _170
REMARK   68  A    between atoms: _170  and  _171
REMARK   69  A    between atoms: _174  and  _176
REMARK   70  A    between atoms: _176  and  _177
REMARK   71  A    between atoms: _176  and  _179
REMARK   72  A    between atoms: _179  and  _180
REMARK   73  A    between atoms: _183  and  _185
REMARK   74  A    between atoms: _185  and  _186
REMARK   75  A    between atoms: _185  and  _188
REMARK   76  A    between atoms: _188  and  _189
REMARK   77  A    between atoms: _192  and  _194
REMARK   78  A    between atoms: _194  and  _195
REMARK   79  A    between atoms: _197  and  _199
REMARK   80  A    between atoms: _199  and  _200
REMARK   81  A    between atoms: _199  and  _202
REMARK   82  A    between atoms: _202  and  _203
REMARK   83  A    between atoms: _208  and  _210
REMARK   84  A    between atoms: _210  and  _211
REMARK   85  A    between atoms: _210  and  _213
REMARK   86  A    between atoms: _213  and  _214
REMARK   87  A    between atoms: _216  and  _218
REMARK   88  A    between atoms: _218  and  _219
REMARK   89  A    between atoms: _218  and  _221
REMARK   90  A    between atoms: _221  and  _222
REMARK   91  A    between atoms: _224  and  _226
REMARK   92  A    between atoms: _226  and  _227
REMARK   93  A    between atoms: _226  and  _229
REMARK   94  A    between atoms: _229  and  _230
REMARK   95  A    between atoms: _235  and  _236
REMARK   96  A    between atoms: _238  and  _240
REMARK   97  A    between atoms: _240  and  _241
REMARK   98  A    between atoms: _240  and  _243
REMARK   99  A    between atoms: _243  and  _244
REMARK  100  A    between atoms: _247  and  _249
REMARK  101  A    between atoms: _249  and  _250
REMARK  102  A    between atoms: _249  and  _252
REMARK  103  A    between atoms: _252  and  _253
REMARK  104  A    between atoms: _256  and  _258
REMARK  105  A    between atoms: _258  and  _259
REMARK  106  A    between atoms: _258  and  _261
REMARK  107  A    between atoms: _261  and  _262
REMARK  108  A    between atoms: _262  and  _263
REMARK  109  A    between atoms: _263  and  _264
REMARK  110  A    between atoms: _264  and  _265
REMARK  111  A    between atoms: _269  and  _271
REMARK  112  A    between atoms: _271  and  _272
REMARK  113  A    between atoms: _271  and  _274
REMARK  114  A    between atoms: _274  and  _275
REMARK  115  A    between atoms: _281  and  _283
REMARK  116  A    between atoms: _283  and  _284
REMARK  117  A    between atoms: _286  and  _288
REMARK  118  A    between atoms: _288  and  _289
REMARK  119  A    between atoms: _291  and  _293
REMARK  120  A    between atoms: _293  and  _294
REMARK  121  A    between atoms: _293  and  _296
REMARK  122  A    between atoms: _296  and  _297
REMARK  123  A    between atoms: _297  and  _298
REMARK  124  A    between atoms: _298  and  _299
REMARK  125  A    between atoms: _308  and  _310
REMARK  126  A    between atoms: _310  and  _311
REMARK  127  A    between atoms: _310  and  _313
REMARK  128  A    between atoms: _313  and  _314
REMARK  129  A    between atoms: _317  and  _319
REMARK  130  A    between atoms: _319  and  _320
REMARK  131  A    between atoms: _319  and  _322
REMARK  132  A    between atoms: _322  and  _323
REMARK  133  A    between atoms: _329  and  _331
REMARK  134  A    between atoms: _331  and  _332
REMARK  135  A    between atoms: _331  and  _334
REMARK  136  A    between atoms: _334  and  _335
REMARK  137  A    between atoms: _338  and  _340
REMARK  138  A    between atoms: _340  and  _341
REMARK  139  A    between atoms: _344  and  _346
REMARK  140  A    between atoms: _346  and  _347
REMARK  141  A    between atoms: _346  and  _349
REMARK  142  A    between atoms: _349  and  _350
REMARK  143  A    between atoms: _350  and  _351
REMARK  144  A    between atoms: _354  and  _356
REMARK  145  A    between atoms: _356  and  _357
REMARK  146  A    between atoms: _356  and  _359
REMARK  147  A    between atoms: _359  and  _360
REMARK  148  A    between atoms: _360  and  _361
REMARK  149  A    between atoms: _361  and  _362
REMARK  150  A    between atoms: _362  and  _363
REMARK  151  A    between atoms: _367  and  _369
REMARK  152  A    between atoms: _369  and  _370
REMARK  153  A    between atoms: _369  and  _372
REMARK  154  A    between atoms: _372  and  _373
REMARK  155  A    between atoms: _376  and  _378
REMARK  156  A    between atoms: _378  and  _379
REMARK  157  A    between atoms: _378  and  _381
REMARK  158  A    between atoms: _381  and  _382
REMARK  159  A    between atoms: _382  and  _383
REMARK  160  A    between atoms: _383  and  _384
REMARK  161  A    between atoms: _384  and  _385
REMARK  162  A    between atoms: _389  and  _391
REMARK  163  A    between atoms: _391  and  _392
REMARK  164  A    between atoms: _391  and  _394
REMARK  165  A    between atoms: _394  and  _395
REMARK  166  A    between atoms: _395  and  _396
REMARK  167  A    between atoms: _396  and  _397
REMARK  168  A    between atoms: _397  and  _398
REMARK  169  A    between atoms: _402  and  _404
REMARK  170  A    between atoms: _404  and  _405
REMARK  171  A    between atoms: _404  and  _407
REMARK  172  A    between atoms: _410  and  _412
REMARK  173  A    between atoms: _412  and  _413
REMARK  174  A    between atoms: _412  and  _415
REMARK  175  A    between atoms: _415  and  _416
REMARK  176  A    between atoms: _419  and  _421
REMARK  177  A    between atoms: _421  and  _422
REMARK  178  A    between atoms: _421  and  _424
REMARK  179  A    between atoms: _424  and  _425
REMARK  180  A    between atoms: _427  and  _429
REMARK  181  A    between atoms: _429  and  _430
REMARK  182  A    between atoms: _433  and  _435
REMARK  183  A    between atoms: _435  and  _436
REMARK  184  A    between atoms: _435  and  _438
REMARK  185  A    between atoms: _438  and  _439
REMARK  186  A    between atoms: _442  and  _444
REMARK  187  A    between atoms: _444  and  _445
REMARK  188  A    between atoms: _444  and  _447
REMARK  189  A    between atoms: _447  and  _448
REMARK  190  A    between atoms: _451  and  _453
REMARK  191  A    between atoms: _453  and  _454
REMARK  192  A    between atoms: _456  and  _458
REMARK  193  A    between atoms: _458  and  _459
REMARK  194  A    between atoms: _461  and  _463
REMARK  195  A    between atoms: _463  and  _464
REMARK  196  A    between atoms: _463  and  _466
REMARK  197  A    between atoms: _466  and  _467
REMARK  198  A    between atoms: _470  and  _472
REMARK  199  A    between atoms: _472  and  _473
REMARK  200  A    between atoms: _472  and  _475
REMARK  201  A    between atoms: _475  and  _476
REMARK  202  A    between atoms: _479  and  _481
REMARK  203  A    between atoms: _481  and  _482
REMARK  204  A    between atoms: _481  and  _484
REMARK  205  A    between atoms: _484  and  _485
REMARK  206  A    between atoms: _485  and  _486
REMARK  207  A    between atoms: _486  and  _487
REMARK  208  A    between atoms: _496  and  _498
REMARK  209  A    between atoms: _498  and  _499
REMARK  210  A    between atoms: _498  and  _501
REMARK  211  A    between atoms: _501  and  _502
REMARK  212  A    between atoms: _506  and  _507
REMARK  213  A    between atoms: _512  and  _514
REMARK  214  A    between atoms: _514  and  _515
REMARK  215  A    between atoms: _514  and  _517
REMARK  216  A    between atoms: _517  and  _518
REMARK  217  A    between atoms: _521  and  _523
REMARK  218  A    between atoms: _523  and  _524
REMARK  219  A    between atoms: _523  and  _526
REMARK  220  A    between atoms: _526  and  _527
REMARK  221  A    between atoms: _527  and  _528
REMARK  222  A    between atoms: _528  and  _529
REMARK  223  A    between atoms: _529  and  _530
REMARK  224  A    between atoms: _534  and  _536
REMARK  225  A    between atoms: _536  and  _537
REMARK  226  A    between atoms: _536  and  _539
REMARK  227  A    between atoms: _539  and  _540
REMARK  228  A    between atoms: _540  and  _541
REMARK  229  A    between atoms: _546  and  _548
REMARK  230  A    between atoms: _548  and  _549
REMARK  231  A    between atoms: _548  and  _551
REMARK  232  A    between atoms: _551  and  _552
REMARK  233  A    between atoms: _555  and  _557
REMARK  234  A    between atoms: _557  and  _558
REMARK  235  A    between atoms: _557  and  _560
REMARK  236  A    between atoms: _560  and  _561
REMARK  237  A    between atoms: _564  and  _566
REMARK  238  A    between atoms: _566  and  _567
REMARK  239  A    between atoms: _566  and  _569
REMARK  240  A    between atoms: _569  and  _570
REMARK  241  A    between atoms: _575  and  _577
REMARK  242  A    between atoms: _577  and  _578
REMARK  243  A    between atoms: _577  and  _580
REMARK  244  A    between atoms: _580  and  _581
REMARK  245  A    between atoms: _584  and  _586
REMARK  246  A    between atoms: _586  and  _587
REMARK  247  A    between atoms: _586  and  _589
REMARK  248  A    between atoms: _589  and  _590
REMARK  249  A    between atoms: _590  and  _591
REMARK  250  A    between atoms: _596  and  _598
REMARK  251  A    between atoms: _598  and  _599
REMARK  252  A    between atoms: _601  and  _603
REMARK  253  A    between atoms: _603  and  _604
REMARK  254  A    between atoms: _603  and  _606
REMARK  255  A    between atoms: _606  and  _607
REMARK  256  A    between atoms: _612  and  _614
REMARK  257  A    between atoms: _614  and  _615
REMARK  258  A    between atoms: _614  and  _617
REMARK  259  A    between atoms: _617  and  _618
REMARK  260  A    between atoms: _621  and  _623
REMARK  261  A    between atoms: _623  and  _624
REMARK  262  A    between atoms: _623  and  _626
REMARK  263  A    between atoms: _626  and  _627
REMARK                            x       y       z     vdW  Elec       q    Type
REMARK                         _______ _______ _______ _____ _____    ______ ____
ROOT
ATOM      1  O   HOH     1      94.147  89.623 177.298  0.00  0.00    +0.000 OA
ENDROOT
TORSDOF 0
REMARK  Name = ../refined-set-2016/3d2e/3d2e_pocket.pdb
REMARK  263 active torsions:
REMARK  status: ('A' for Active; 'I' for Inactive)
REMARK    1  A    between atoms: _1  and  _3
REMARK    2  A    between atoms: _3  and  _4
REMARK    3  A    between atoms: _3  and  _6
REMARK    4  A    between atoms: _6  and  _7
REMARK    5  A    between atoms: _10  and  _12
REMARK    6  A    between atoms: _12  and  _13
REMARK    7  A    between atoms: _12  and  _15
REMARK    8  A    between atoms: _15  and  _16
REMARK    9  A    between atoms: _19  and  _21
REMARK   10  A    between atoms: _21  and  _22
REMARK   11  A    between atoms: _24  and  _26
REMARK   12  A    between atoms: _26  and  _27
REMARK   13  A    between atoms: _26  and  _29
REMARK   14  A    between atoms: _29  and  _30
REMARK   15  A    between atoms: _35  and  _37
REMARK   16  A    between atoms: _37  and  _38
REMARK   17  A    between atoms: _37  and  _40
REMARK   18  A    between atoms: _40  and  _41
REMARK   19  A    between atoms: _46  and  _48
REMARK   20  A    between atoms: _48  and  _49
REMARK   21  A    between atoms: _48  and  _51
REMARK   22  A    between atoms: _51  and  _52
REMARK   23  A    between atoms: _57  and  _59
REMARK   24  A    between atoms: _59  and  _60
REMARK   25  A    between atoms: _59  and  _62
REMARK   26  A    between atoms: _62  and  _63
REMARK   27  A    between atoms: _65  and  _67
REMARK   28  A    between atoms: _67  and  _68
REMARK   29  A    between atoms: _67  and  _70
REMARK   30  A    between atoms: _73  and  _75
REMARK   31  A    between atoms: _75  and  _76
REMARK   32  A    between atoms: _75  and  _78
REMARK   33  A    between atoms: _78  and  _79
REMARK   34  A    between atoms: _81  and  _83
REMARK   35  A    between atoms: _83  and  _84
REMARK   36  A    between atoms: _83  and  _86
REMARK   37  A    between atoms: _86  and  _87
REMARK   38  A    between atoms: _90  and  _92
REMARK   39  A    between atoms: _92  and  _93
REMARK   40  A    between atoms: _92  and  _95
REMARK   41  A    between atoms: _95  and  _96
REMARK   42  A    between atoms: _98  and  _100
REMARK   43  A    between atoms: _100  and  _101
REMARK   44  A    between atoms: _100  and  _103
REMARK   45  A    between atoms: _103  and  _104
REMARK   46  A    between atoms: _104  and  _105
REMARK   47  A    between atoms: _105  and  _106
REMARK   48  A    between atoms: _106  and  _107
REMARK   49  A    between atoms: _111  and  _113
REMARK   50  A    between atoms: _113  and  _114
REMARK   51  A    between atoms: _113  and  _116
REMARK   52  A    between atoms: _116  and  _117
REMARK   53  A    between atoms: _117  and  _118
REMARK   54  A    between atoms: _118  and  _119
REMARK   55  A    between atoms: _128  and  _130
REMARK   56  A    between atoms: _130  and  _131
REMARK   57  A    between atoms: _134  and  _136
REMARK   58  A    between atoms: _136  and  _137
REMARK   59  A    between atoms: _136  and  _139
REMARK   60  A    between atoms: _143  and  _144
REMARK   61  A    between atoms: _149  and  _151
REMARK   62  A    between atoms: _151  and  _152
REMARK   63  A    between atoms: _151  and  _154
REMARK   64  A    between atoms: _154  and  _155
REMARK   65  A    between atoms: _165  and  _167
REMARK   66  A    between atoms: _167  and  _168
REMARK   67  A    between atoms: _167  and  _170
REMARK   68  A    between atoms: _170  and  _171
REMARK   69  A    between atoms: _174  and  _176
REMARK   70  A    between atoms: _176  and  _177
REMARK   71  A    between atoms: _176  and  _179
REMARK   72  A    between atoms: _179  and  _180
REMARK   73  A    between atoms: _183  and  _185
REMARK   74  A    between atoms: _185  and  _186
REMARK   75  A    between atoms: _185  and  _188
REMARK   76  A    between atoms: _188  and  _189
REMARK   77  A    between atoms: _192  and  _194
REMARK   78  A    between atoms: _194  and  _195
REMARK   79  A    between atoms: _197  and  _199
REMARK   80  A    between atoms: _199  and  _200
REMARK   81  A    between atoms: _199  and  _202
REMARK   82  A    between atoms: _202  and  _203
REMARK   83  A    between atoms: _208  and  _210
REMARK   84  A    between atoms: _210  and  _211
REMARK   85  A    between atoms: _210  and  _213
REMARK   86  A    between atoms: _213  and  _214
REMARK   87  A    between atoms: _216  and  _218
REMARK   88  A    between atoms: _218  and  _219
REMARK   89  A    between atoms: _218  and  _221
REMARK   90  A    between atoms: _221  and  _222
REMARK   91  A    between atoms: _224  and  _226
REMARK   92  A    between atoms: _226  and  _227
REMARK   93  A    between atoms: _226  and  _229
REMARK   94  A    between atoms: _229  and  _230
REMARK   95  A    between atoms: _235  and  _236
REMARK   96  A    between atoms: _238  and  _240
REMARK   97  A    between atoms: _240  and  _241
REMARK   98  A    between atoms: _240  and  _243
REMARK   99  A    between atoms: _243  and  _244
REMARK  100  A    between atoms: _247  and  _249
REMARK  101  A    between atoms: _249  and  _250
REMARK  102  A    between atoms: _249  and  _252
REMARK  103  A    between atoms: _252  and  _253
REMARK  104  A    between atoms: _256  and  _258
REMARK  105  A    between atoms: _258  and  _259
REMARK  106  A    between atoms: _258  and  _261
REMARK  107  A    between atoms: _261  and  _262
REMARK  108  A    between atoms: _262  and  _263
REMARK  109  A    between atoms: _263  and  _264
REMARK  110  A    between atoms: _264  and  _265
REMARK  111  A    between atoms: _269  and  _271
REMARK  112  A    between atoms: _271  and  _272
REMARK  113  A    between atoms: _271  and  _274
REMARK  114  A    between atoms: _274  and  _275
REMARK  115  A    between atoms: _281  and  _283
REMARK  116  A    between atoms: _283  and  _284
REMARK  117  A    between atoms: _286  and  _288
REMARK  118  A    between atoms: _288  and  _289
REMARK  119  A    between atoms: _291  and  _293
REMARK  120  A    between atoms: _293  and  _294
REMARK  121  A    between atoms: _293  and  _296
REMARK  122  A    between atoms: _296  and  _297
REMARK  123  A    between atoms: _297  and  _298
REMARK  124  A    between atoms: _298  and  _299
REMARK  125  A    between atoms: _308  and  _310
REMARK  126  A    between atoms: _310  and  _311
REMARK  127  A    between atoms: _310  and  _313
REMARK  128  A    between atoms: _313  and  _314
REMARK  129  A    between atoms: _317  and  _319
REMARK  130  A    between atoms: _319  and  _320
REMARK  131  A    between atoms: _319  and  _322
REMARK  132  A    between atoms: _322  and  _323
REMARK  133  A    between atoms: _329  and  _331
REMARK  134  A    between atoms: _331  and  _332
REMARK  135  A    between atoms: _331  and  _334
REMARK  136  A    between atoms: _334  and  _335
REMARK  137  A    between atoms: _338  and  _340
REMARK  138  A    between atoms: _340  and  _341
REMARK  139  A    between atoms: _344  and  _346
REMARK  140  A    between atoms: _346  and  _347
REMARK  141  A    between atoms: _346  and  _349
REMARK  142  A    between atoms: _349  and  _350
REMARK  143  A    between atoms: _350  and  _351
REMARK  144  A    between atoms: _354  and  _356
REMARK  145  A    between atoms: _356  and  _357
REMARK  146  A    between atoms: _356  and  _359
REMARK  147  A    between atoms: _359  and  _360
REMARK  148  A    between atoms: _360  and  _361
REMARK  149  A    between atoms: _361  and  _362
REMARK  150  A    between atoms: _362  and  _363
REMARK  151  A    between atoms: _367  and  _369
REMARK  152  A    between atoms: _369  and  _370
REMARK  153  A    between atoms: _369  and  _372
REMARK  154  A    between atoms: _372  and  _373
REMARK  155  A    between atoms: _376  and  _378
REMARK  156  A    between atoms: _378  and  _379
REMARK  157  A    between atoms: _378  and  _381
REMARK  158  A    between atoms: _381  and  _382
REMARK  159  A    between atoms: _382  and  _383
REMARK  160  A    between atoms: _383  and  _384
REMARK  161  A    between atoms: _384  and  _385
REMARK  162  A    between atoms: _389  and  _391
REMARK  163  A    between atoms: _391  and  _392
REMARK  164  A    between atoms: _391  and  _394
REMARK  165  A    between atoms: _394  and  _395
REMARK  166  A    between atoms: _395  and  _396
REMARK  167  A    between atoms: _396  and  _397
REMARK  168  A    between atoms: _397  and  _398
REMARK  169  A    between atoms: _402  and  _404
REMARK  170  A    between atoms: _404  and  _405
REMARK  171  A    between atoms: _404  and  _407
REMARK  172  A    between atoms: _410  and  _412
REMARK  173  A    between atoms: _412  and  _413
REMARK  174  A    between atoms: _412  and  _415
REMARK  175  A    between atoms: _415  and  _416
REMARK  176  A    between atoms: _419  and  _421
REMARK  177  A    between atoms: _421  and  _422
REMARK  178  A    between atoms: _421  and  _424
REMARK  179  A    between atoms: _424  and  _425
REMARK  180  A    between atoms: _427  and  _429
REMARK  181  A    between atoms: _429  and  _430
REMARK  182  A    between atoms: _433  and  _435
REMARK  183  A    between atoms: _435  and  _436
REMARK  184  A    between atoms: _435  and  _438
REMARK  185  A    between atoms: _438  and  _439
REMARK  186  A    between atoms: _442  and  _444
REMARK  187  A    between atoms: _444  and  _445
REMARK  188  A    between atoms: _444  and  _447
REMARK  189  A    between atoms: _447  and  _448
REMARK  190  A    between atoms: _451  and  _453
REMARK  191  A    between atoms: _453  and  _454
REMARK  192  A    between atoms: _456  and  _458
REMARK  193  A    between atoms: _458  and  _459
REMARK  194  A    between atoms: _461  and  _463
REMARK  195  A    between atoms: _463  and  _464
REMARK  196  A    between atoms: _463  and  _466
REMARK  197  A    between atoms: _466  and  _467
REMARK  198  A    between atoms: _470  and  _472
REMARK  199  A    between atoms: _472  and  _473
REMARK  200  A    between atoms: _472  and  _475
REMARK  201  A    between atoms: _475  and  _476
REMARK  202  A    between atoms: _479  and  _481
REMARK  203  A    between atoms: _481  and  _482
REMARK  204  A    between atoms: _481  and  _484
REMARK  205  A    between atoms: _484  and  _485
REMARK  206  A    between atoms: _485  and  _486
REMARK  207  A    between atoms: _486  and  _487
REMARK  208  A    between atoms: _496  and  _498
REMARK  209  A    between atoms: _498  and  _499
REMARK  210  A    between atoms: _498  and  _501
REMARK  211  A    between atoms: _501  and  _502
REMARK  212  A    between atoms: _506  and  _507
REMARK  213  A    between atoms: _512  and  _514
REMARK  214  A    between atoms: _514  and  _515
REMARK  215  A    between atoms: _514  and  _517
REMARK  216  A    between atoms: _517  and  _518
REMARK  217  A    between atoms: _521  and  _523
REMARK  218  A    between atoms: _523  and  _524
REMARK  219  A    between atoms: _523  and  _526
REMARK  220  A    between atoms: _526  and  _527
REMARK  221  A    between atoms: _527  and  _528
REMARK  222  A    between atoms: _528  and  _529
REMARK  223  A    between atoms: _529  and  _530
REMARK  224  A    between atoms: _534  and  _536
REMARK  225  A    between atoms: _536  and  _537
REMARK  226  A    between atoms: _536  and  _539
REMARK  227  A    between atoms: _539  and  _540
REMARK  228  A    between atoms: _540  and  _541
REMARK  229  A    between atoms: _546  and  _548
REMARK  230  A    between atoms: _548  and  _549
REMARK  231  A    between atoms: _548  and  _551
REMARK  232  A    between atoms: _551  and  _552
REMARK  233  A    between atoms: _555  and  _557
REMARK  234  A    between atoms: _557  and  _558
REMARK  235  A    between atoms: _557  and  _560
REMARK  236  A    between atoms: _560  and  _561
REMARK  237  A    between atoms: _564  and  _566
REMARK  238  A    between atoms: _566  and  _567
REMARK  239  A    between atoms: _566  and  _569
REMARK  240  A    between atoms: _569  and  _570
REMARK  241  A    between atoms: _575  and  _577
REMARK  242  A    between atoms: _577  and  _578
REMARK  243  A    between atoms: _577  and  _580
REMARK  244  A    between atoms: _580  and  _581
REMARK  245  A    between atoms: _584  and  _586
REMARK  246  A    between atoms: _586  and  _587
REMARK  247  A    between atoms: _586  and  _589
REMARK  248  A    between atoms: _589  and  _590
REMARK  249  A    between atoms: _590  and  _591
REMARK  250  A    between atoms: _596  and  _598
REMARK  251  A    between atoms: _598  and  _599
REMARK  252  A    between atoms: _601  and  _603
REMARK  253  A    between atoms: _603  and  _604
REMARK  254  A    between atoms: _603  and  _606
REMARK  255  A    between atoms: _606  and  _607
REMARK  256  A    between atoms: _612  and  _614
REMARK  257  A    between atoms: _614  and  _615
REMARK  258  A    between atoms: _614  and  _617
REMARK  259  A    between atoms: _617  and  _618
REMARK  260  A    between atoms: _621  and  _623
REMARK  261  A    between atoms: _623  and  _624
REMARK  262  A    between atoms: _623  and  _626
REMARK  263  A    between atoms: _626  and  _627
REMARK                            x       y       z     vdW  Elec       q    Type
REMARK                         _______ _______ _______ _____ _____    ______ ____
ROOT
ATOM      1  O   HOH     1      88.332  92.651 173.766  0.00  0.00    +0.000 OA
ENDROOT
TORSDOF 0
REMARK  Name = ../refined-set-2016/3d2e/3d2e_pocket.pdb
REMARK  263 active torsions:
REMARK  status: ('A' for Active; 'I' for Inactive)
REMARK    1  A    between atoms: _1  and  _3
REMARK    2  A    between atoms: _3  and  _4
REMARK    3  A    between atoms: _3  and  _6
REMARK    4  A    between atoms: _6  and  _7
REMARK    5  A    between atoms: _10  and  _12
REMARK    6  A    between atoms: _12  and  _13
REMARK    7  A    between atoms: _12  and  _15
REMARK    8  A    between atoms: _15  and  _16
REMARK    9  A    between atoms: _19  and  _21
REMARK   10  A    between atoms: _21  and  _22
REMARK   11  A    between atoms: _24  and  _26
REMARK   12  A    between atoms: _26  and  _27
REMARK   13  A    between atoms: _26  and  _29
REMARK   14  A    between atoms: _29  and  _30
REMARK   15  A    between atoms: _35  and  _37
REMARK   16  A    between atoms: _37  and  _38
REMARK   17  A    between atoms: _37  and  _40
REMARK   18  A    between atoms: _40  and  _41
REMARK   19  A    between atoms: _46  and  _48
REMARK   20  A    between atoms: _48  and  _49
REMARK   21  A    between atoms: _48  and  _51
REMARK   22  A    between atoms: _51  and  _52
REMARK   23  A    between atoms: _57  and  _59
REMARK   24  A    between atoms: _59  and  _60
REMARK   25  A    between atoms: _59  and  _62
REMARK   26  A    between atoms: _62  and  _63
REMARK   27  A    between atoms: _65  and  _67
REMARK   28  A    between atoms: _67  and  _68
REMARK   29  A    between atoms: _67  and  _70
REMARK   30  A    between atoms: _73  and  _75
REMARK   31  A    between atoms: _75  and  _76
REMARK   32  A    between atoms: _75  and  _78
REMARK   33  A    between atoms: _78  and  _79
REMARK   34  A    between atoms: _81  and  _83
REMARK   35  A    between atoms: _83  and  _84
REMARK   36  A    between atoms: _83  and  _86
REMARK   37  A    between atoms: _86  and  _87
REMARK   38  A    between atoms: _90  and  _92
REMARK   39  A    between atoms: _92  and  _93
REMARK   40  A    between atoms: _92  and  _95
REMARK   41  A    between atoms: _95  and  _96
REMARK   42  A    between atoms: _98  and  _100
REMARK   43  A    between atoms: _100  and  _101
REMARK   44  A    between atoms: _100  and  _103
REMARK   45  A    between atoms: _103  and  _104
REMARK   46  A    between atoms: _104  and  _105
REMARK   47  A    between atoms: _105  and  _106
REMARK   48  A    between atoms: _106  and  _107
REMARK   49  A    between atoms: _111  and  _113
REMARK   50  A    between atoms: _113  and  _114
REMARK   51  A    between atoms: _113  and  _116
REMARK   52  A    between atoms: _116  and  _117
REMARK   53  A    between atoms: _117  and  _118
REMARK   54  A    between atoms: _118  and  _119
REMARK   55  A    between atoms: _128  and  _130
REMARK   56  A    between atoms: _130  and  _131
REMARK   57  A    between atoms: _134  and  _136
REMARK   58  A    between atoms: _136  and  _137
REMARK   59  A    between atoms: _136  and  _139
REMARK   60  A    between atoms: _143  and  _144
REMARK   61  A    between atoms: _149  and  _151
REMARK   62  A    between atoms: _151  and  _152
REMARK   63  A    between atoms: _151  and  _154
REMARK   64  A    between atoms: _154  and  _155
REMARK   65  A    between atoms: _165  and  _167
REMARK   66  A    between atoms: _167  and  _168
REMARK   67  A    between atoms: _167  and  _170
REMARK   68  A    between atoms: _170  and  _171
REMARK   69  A    between atoms: _174  and  _176
REMARK   70  A    between atoms: _176  and  _177
REMARK   71  A    between atoms: _176  and  _179
REMARK   72  A    between atoms: _179  and  _180
REMARK   73  A    between atoms: _183  and  _185
REMARK   74  A    between atoms: _185  and  _186
REMARK   75  A    between atoms: _185  and  _188
REMARK   76  A    between atoms: _188  and  _189
REMARK   77  A    between atoms: _192  and  _194
REMARK   78  A    between atoms: _194  and  _195
REMARK   79  A    between atoms: _197  and  _199
REMARK   80  A    between atoms: _199  and  _200
REMARK   81  A    between atoms: _199  and  _202
REMARK   82  A    between atoms: _202  and  _203
REMARK   83  A    between atoms: _208  and  _210
REMARK   84  A    between atoms: _210  and  _211
REMARK   85  A    between atoms: _210  and  _213
REMARK   86  A    between atoms: _213  and  _214
REMARK   87  A    between atoms: _216  and  _218
REMARK   88  A    between atoms: _218  and  _219
REMARK   89  A    between atoms: _218  and  _221
REMARK   90  A    between atoms: _221  and  _222
REMARK   91  A    between atoms: _224  and  _226
REMARK   92  A    between atoms: _226  and  _227
REMARK   93  A    between atoms: _226  and  _229
REMARK   94  A    between atoms: _229  and  _230
REMARK   95  A    between atoms: _235  and  _236
REMARK   96  A    between atoms: _238  and  _240
REMARK   97  A    between atoms: _240  and  _241
REMARK   98  A    between atoms: _240  and  _243
REMARK   99  A    between atoms: _243  and  _244
REMARK  100  A    between atoms: _247  and  _249
REMARK  101  A    between atoms: _249  and  _250
REMARK  102  A    between atoms: _249  and  _252
REMARK  103  A    between atoms: _252  and  _253
REMARK  104  A    between atoms: _256  and  _258
REMARK  105  A    between atoms: _258  and  _259
REMARK  106  A    between atoms: _258  and  _261
REMARK  107  A    between atoms: _261  and  _262
REMARK  108  A    between atoms: _262  and  _263
REMARK  109  A    between atoms: _263  and  _264
REMARK  110  A    between atoms: _264  and  _265
REMARK  111  A    between atoms: _269  and  _271
REMARK  112  A    between atoms: _271  and  _272
REMARK  113  A    between atoms: _271  and  _274
REMARK  114  A    between atoms: _274  and  _275
REMARK  115  A    between atoms: _281  and  _283
REMARK  116  A    between atoms: _283  and  _284
REMARK  117  A    between atoms: _286  and  _288
REMARK  118  A    between atoms: _288  and  _289
REMARK  119  A    between atoms: _291  and  _293
REMARK  120  A    between atoms: _293  and  _294
REMARK  121  A    between atoms: _293  and  _296
REMARK  122  A    between atoms: _296  and  _297
REMARK  123  A    between atoms: _297  and  _298
REMARK  124  A    between atoms: _298  and  _299
REMARK  125  A    between atoms: _308  and  _310
REMARK  126  A    between atoms: _310  and  _311
REMARK  127  A    between atoms: _310  and  _313
REMARK  128  A    between atoms: _313  and  _314
REMARK  129  A    between atoms: _317  and  _319
REMARK  130  A    between atoms: _319  and  _320
REMARK  131  A    between atoms: _319  and  _322
REMARK  132  A    between atoms: _322  and  _323
REMARK  133  A    between atoms: _329  and  _331
REMARK  134  A    between atoms: _331  and  _332
REMARK  135  A    between atoms: _331  and  _334
REMARK  136  A    between atoms: _334  and  _335
REMARK  137  A    between atoms: _338  and  _340
REMARK  138  A    between atoms: _340  and  _341
REMARK  139  A    between atoms: _344  and  _346
REMARK  140  A    between atoms: _346  and  _347
REMARK  141  A    between atoms: _346  and  _349
REMARK  142  A    between atoms: _349  and  _350
REMARK  143  A    between atoms: _350  and  _351
REMARK  144  A    between atoms: _354  and  _356
REMARK  145  A    between atoms: _356  and  _357
REMARK  146  A    between atoms: _356  and  _359
REMARK  147  A    between atoms: _359  and  _360
REMARK  148  A    between atoms: _360  and  _361
REMARK  149  A    between atoms: _361  and  _362
REMARK  150  A    between atoms: _362  and  _363
REMARK  151  A    between atoms: _367  and  _369
REMARK  152  A    between atoms: _369  and  _370
REMARK  153  A    between atoms: _369  and  _372
REMARK  154  A    between atoms: _372  and  _373
REMARK  155  A    between atoms: _376  and  _378
REMARK  156  A    between atoms: _378  and  _379
REMARK  157  A    between atoms: _378  and  _381
REMARK  158  A    between atoms: _381  and  _382
REMARK  159  A    between atoms: _382  and  _383
REMARK  160  A    between atoms: _383  and  _384
REMARK  161  A    between atoms: _384  and  _385
REMARK  162  A    between atoms: _389  and  _391
REMARK  163  A    between atoms: _391  and  _392
REMARK  164  A    between atoms: _391  and  _394
REMARK  165  A    between atoms: _394  and  _395
REMARK  166  A    between atoms: _395  and  _396
REMARK  167  A    between atoms: _396  and  _397
REMARK  168  A    between atoms: _397  and  _398
REMARK  169  A    between atoms: _402  and  _404
REMARK  170  A    between atoms: _404  and  _405
REMARK  171  A    between atoms: _404  and  _407
REMARK  172  A    between atoms: _410  and  _412
REMARK  173  A    between atoms: _412  and  _413
REMARK  174  A    between atoms: _412  and  _415
REMARK  175  A    between atoms: _415  and  _416
REMARK  176  A    between atoms: _419  and  _421
REMARK  177  A    between atoms: _421  and  _422
REMARK  178  A    between atoms: _421  and  _424
REMARK  179  A    between atoms: _424  and  _425
REMARK  180  A    between atoms: _427  and  _429
REMARK  181  A    between atoms: _429  and  _430
REMARK  182  A    between atoms: _433  and  _435
REMARK  183  A    between atoms: _435  and  _436
REMARK  184  A    between atoms: _435  and  _438
REMARK  185  A    between atoms: _438  and  _439
REMARK  186  A    between atoms: _442  and  _444
REMARK  187  A    between atoms: _444  and  _445
REMARK  188  A    between atoms: _444  and  _447
REMARK  189  A    between atoms: _447  and  _448
REMARK  190  A    between atoms: _451  and  _453
REMARK  191  A    between atoms: _453  and  _454
REMARK  192  A    between atoms: _456  and  _458
REMARK  193  A    between atoms: _458  and  _459
REMARK  194  A    between atoms: _461  and  _463
REMARK  195  A    between atoms: _463  and  _464
REMARK  196  A    between atoms: _463  and  _466
REMARK  197  A    between atoms: _466  and  _467
REMARK  198  A    between atoms: _470  and  _472
REMARK  199  A    between atoms: _472  and  _473
REMARK  200  A    between atoms: _472  and  _475
REMARK  201  A    between atoms: _475  and  _476
REMARK  202  A    between atoms: _479  and  _481
REMARK  203  A    between atoms: _481  and  _482
REMARK  204  A    between atoms: _481  and  _484
REMARK  205  A    between atoms: _484  and  _485
REMARK  206  A    between atoms: _485  and  _486
REMARK  207  A    between atoms: _486  and  _487
REMARK  208  A    between atoms: _496  and  _498
REMARK  209  A    between atoms: _498  and  _499
REMARK  210  A    between atoms: _498  and  _501
REMARK  211  A    between atoms: _501  and  _502
REMARK  212  A    between atoms: _506  and  _507
REMARK  213  A    between atoms: _512  and  _514
REMARK  214  A    between atoms: _514  and  _515
REMARK  215  A    between atoms: _514  and  _517
REMARK  216  A    between atoms: _517  and  _518
REMARK  217  A    between atoms: _521  and  _523
REMARK  218  A    between atoms: _523  and  _524
REMARK  219  A    between atoms: _523  and  _526
REMARK  220  A    between atoms: _526  and  _527
REMARK  221  A    between atoms: _527  and  _528
REMARK  222  A    between atoms: _528  and  _529
REMARK  223  A    between atoms: _529  and  _530
REMARK  224  A    between atoms: _534  and  _536
REMARK  225  A    between atoms: _536  and  _537
REMARK  226  A    between atoms: _536  and  _539
REMARK  227  A    between atoms: _539  and  _540
REMARK  228  A    between atoms: _540  and  _541
REMARK  229  A    between atoms: _546  and  _548
REMARK  230  A    between atoms: _548  and  _549
REMARK  231  A    between atoms: _548  and  _551
REMARK  232  A    between atoms: _551  and  _552
REMARK  233  A    between atoms: _555  and  _557
REMARK  234  A    between atoms: _557  and  _558
REMARK  235  A    between atoms: _557  and  _560
REMARK  236  A    between atoms: _560  and  _561
REMARK  237  A    between atoms: _564  and  _566
REMARK  238  A    between atoms: _566  and  _567
REMARK  239  A    between atoms: _566  and  _569
REMARK  240  A    between atoms: _569  and  _570
REMARK  241  A    between atoms: _575  and  _577
REMARK  242  A    between atoms: _577  and  _578
REMARK  243  A    between atoms: _577  and  _580
REMARK  244  A    between atoms: _580  and  _581
REMARK  245  A    between atoms: _584  and  _586
REMARK  246  A    between atoms: _586  and  _587
REMARK  247  A    between atoms: _586  and  _589
REMARK  248  A    between atoms: _589  and  _590
REMARK  249  A    between atoms: _590  and  _591
REMARK  250  A    between atoms: _596  and  _598
REMARK  251  A    between atoms: _598  and  _599
REMARK  252  A    between atoms: _601  and  _603
REMARK  253  A    between atoms: _603  and  _604
REMARK  254  A    between atoms: _603  and  _606
REMARK  255  A    between atoms: _606  and  _607
REMARK  256  A    between atoms: _612  and  _614
REMARK  257  A    between atoms: _614  and  _615
REMARK  258  A    between atoms: _614  and  _617
REMARK  259  A    between atoms: _617  and  _618
REMARK  260  A    between atoms: _621  and  _623
REMARK  261  A    between atoms: _623  and  _624
REMARK  262  A    between atoms: _623  and  _626
REMARK  263  A    between atoms: _626  and  _627
REMARK                            x       y       z     vdW  Elec       q    Type
REMARK                         _______ _______ _______ _____ _____    ______ ____
ROOT
ATOM      1  O   HOH     1      84.672  84.776 165.980  0.00  0.00    +0.000 OA
ENDROOT
TORSDOF 0
REMARK  Name = ../refined-set-2016/3d2e/3d2e_pocket.pdb
REMARK  263 active torsions:
REMARK  status: ('A' for Active; 'I' for Inactive)
REMARK    1  A    between atoms: _1  and  _3
REMARK    2  A    between atoms: _3  and  _4
REMARK    3  A    between atoms: _3  and  _6
REMARK    4  A    between atoms: _6  and  _7
REMARK    5  A    between atoms: _10  and  _12
REMARK    6  A    between atoms: _12  and  _13
REMARK    7  A    between atoms: _12  and  _15
REMARK    8  A    between atoms: _15  and  _16
REMARK    9  A    between atoms: _19  and  _21
REMARK   10  A    between atoms: _21  and  _22
REMARK   11  A    between atoms: _24  and  _26
REMARK   12  A    between atoms: _26  and  _27
REMARK   13  A    between atoms: _26  and  _29
REMARK   14  A    between atoms: _29  and  _30
REMARK   15  A    between atoms: _35  and  _37
REMARK   16  A    between atoms: _37  and  _38
REMARK   17  A    between atoms: _37  and  _40
REMARK   18  A    between atoms: _40  and  _41
REMARK   19  A    between atoms: _46  and  _48
REMARK   20  A    between atoms: _48  and  _49
REMARK   21  A    between atoms: _48  and  _51
REMARK   22  A    between atoms: _51  and  _52
REMARK   23  A    between atoms: _57  and  _59
REMARK   24  A    between atoms: _59  and  _60
REMARK   25  A    between atoms: _59  and  _62
REMARK   26  A    between atoms: _62  and  _63
REMARK   27  A    between atoms: _65  and  _67
REMARK   28  A    between atoms: _67  and  _68
REMARK   29  A    between atoms: _67  and  _70
REMARK   30  A    between atoms: _73  and  _75
REMARK   31  A    between atoms: _75  and  _76
REMARK   32  A    between atoms: _75  and  _78
REMARK   33  A    between atoms: _78  and  _79
REMARK   34  A    between atoms: _81  and  _83
REMARK   35  A    between atoms: _83  and  _84
REMARK   36  A    between atoms: _83  and  _86
REMARK   37  A    between atoms: _86  and  _87
REMARK   38  A    between atoms: _90  and  _92
REMARK   39  A    between atoms: _92  and  _93
REMARK   40  A    between atoms: _92  and  _95
REMARK   41  A    between atoms: _95  and  _96
REMARK   42  A    between atoms: _98  and  _100
REMARK   43  A    between atoms: _100  and  _101
REMARK   44  A    between atoms: _100  and  _103
REMARK   45  A    between atoms: _103  and  _104
REMARK   46  A    between atoms: _104  and  _105
REMARK   47  A    between atoms: _105  and  _106
REMARK   48  A    between atoms: _106  and  _107
REMARK   49  A    between atoms: _111  and  _113
REMARK   50  A    between atoms: _113  and  _114
REMARK   51  A    between atoms: _113  and  _116
REMARK   52  A    between atoms: _116  and  _117
REMARK   53  A    between atoms: _117  and  _118
REMARK   54  A    between atoms: _118  and  _119
REMARK   55  A    between atoms: _128  and  _130
REMARK   56  A    between atoms: _130  and  _131
REMARK   57  A    between atoms: _134  and  _136
REMARK   58  A    between atoms: _136  and  _137
REMARK   59  A    between atoms: _136  and  _139
REMARK   60  A    between atoms: _143  and  _144
REMARK   61  A    between atoms: _149  and  _151
REMARK   62  A    between atoms: _151  and  _152
REMARK   63  A    between atoms: _151  and  _154
REMARK   64  A    between atoms: _154  and  _155
REMARK   65  A    between atoms: _165  and  _167
REMARK   66  A    between atoms: _167  and  _168
REMARK   67  A    between atoms: _167  and  _170
REMARK   68  A    between atoms: _170  and  _171
REMARK   69  A    between atoms: _174  and  _176
REMARK   70  A    between atoms: _176  and  _177
REMARK   71  A    between atoms: _176  and  _179
REMARK   72  A    between atoms: _179  and  _180
REMARK   73  A    between atoms: _183  and  _185
REMARK   74  A    between atoms: _185  and  _186
REMARK   75  A    between atoms: _185  and  _188
REMARK   76  A    between atoms: _188  and  _189
REMARK   77  A    between atoms: _192  and  _194
REMARK   78  A    between atoms: _194  and  _195
REMARK   79  A    between atoms: _197  and  _199
REMARK   80  A    between atoms: _199  and  _200
REMARK   81  A    between atoms: _199  and  _202
REMARK   82  A    between atoms: _202  and  _203
REMARK   83  A    between atoms: _208  and  _210
REMARK   84  A    between atoms: _210  and  _211
REMARK   85  A    between atoms: _210  and  _213
REMARK   86  A    between atoms: _213  and  _214
REMARK   87  A    between atoms: _216  and  _218
REMARK   88  A    between atoms: _218  and  _219
REMARK   89  A    between atoms: _218  and  _221
REMARK   90  A    between atoms: _221  and  _222
REMARK   91  A    between atoms: _224  and  _226
REMARK   92  A    between atoms: _226  and  _227
REMARK   93  A    between atoms: _226  and  _229
REMARK   94  A    between atoms: _229  and  _230
REMARK   95  A    between atoms: _235  and  _236
REMARK   96  A    between atoms: _238  and  _240
REMARK   97  A    between atoms: _240  and  _241
REMARK   98  A    between atoms: _240  and  _243
REMARK   99  A    between atoms: _243  and  _244
REMARK  100  A    between atoms: _247  and  _249
REMARK  101  A    between atoms: _249  and  _250
REMARK  102  A    between atoms: _249  and  _252
REMARK  103  A    between atoms: _252  and  _253
REMARK  104  A    between atoms: _256  and  _258
REMARK  105  A    between atoms: _258  and  _259
REMARK  106  A    between atoms: _258  and  _261
REMARK  107  A    between atoms: _261  and  _262
REMARK  108  A    between atoms: _262  and  _263
REMARK  109  A    between atoms: _263  and  _264
REMARK  110  A    between atoms: _264  and  _265
REMARK  111  A    between atoms: _269  and  _271
REMARK  112  A    between atoms: _271  and  _272
REMARK  113  A    between atoms: _271  and  _274
REMARK  114  A    between atoms: _274  and  _275
REMARK  115  A    between atoms: _281  and  _283
REMARK  116  A    between atoms: _283  and  _284
REMARK  117  A    between atoms: _286  and  _288
REMARK  118  A    between atoms: _288  and  _289
REMARK  119  A    between atoms: _291  and  _293
REMARK  120  A    between atoms: _293  and  _294
REMARK  121  A    between atoms: _293  and  _296
REMARK  122  A    between atoms: _296  and  _297
REMARK  123  A    between atoms: _297  and  _298
REMARK  124  A    between atoms: _298  and  _299
REMARK  125  A    between atoms: _308  and  _310
REMARK  126  A    between atoms: _310  and  _311
REMARK  127  A    between atoms: _310  and  _313
REMARK  128  A    between atoms: _313  and  _314
REMARK  129  A    between atoms: _317  and  _319
REMARK  130  A    between atoms: _319  and  _320
REMARK  131  A    between atoms: _319  and  _322
REMARK  132  A    between atoms: _322  and  _323
REMARK  133  A    between atoms: _329  and  _331
REMARK  134  A    between atoms: _331  and  _332
REMARK  135  A    between atoms: _331  and  _334
REMARK  136  A    between atoms: _334  and  _335
REMARK  137  A    between atoms: _338  and  _340
REMARK  138  A    between atoms: _340  and  _341
REMARK  139  A    between atoms: _344  and  _346
REMARK  140  A    between atoms: _346  and  _347
REMARK  141  A    between atoms: _346  and  _349
REMARK  142  A    between atoms: _349  and  _350
REMARK  143  A    between atoms: _350  and  _351
REMARK  144  A    between atoms: _354  and  _356
REMARK  145  A    between atoms: _356  and  _357
REMARK  146  A    between atoms: _356  and  _359
REMARK  147  A    between atoms: _359  and  _360
REMARK  148  A    between atoms: _360  and  _361
REMARK  149  A    between atoms: _361  and  _362
REMARK  150  A    between atoms: _362  and  _363
REMARK  151  A    between atoms: _367  and  _369
REMARK  152  A    between atoms: _369  and  _370
REMARK  153  A    between atoms: _369  and  _372
REMARK  154  A    between atoms: _372  and  _373
REMARK  155  A    between atoms: _376  and  _378
REMARK  156  A    between atoms: _378  and  _379
REMARK  157  A    between atoms: _378  and  _381
REMARK  158  A    between atoms: _381  and  _382
REMARK  159  A    between atoms: _382  and  _383
REMARK  160  A    between atoms: _383  and  _384
REMARK  161  A    between atoms: _384  and  _385
REMARK  162  A    between atoms: _389  and  _391
REMARK  163  A    between atoms: _391  and  _392
REMARK  164  A    between atoms: _391  and  _394
REMARK  165  A    between atoms: _394  and  _395
REMARK  166  A    between atoms: _395  and  _396
REMARK  167  A    between atoms: _396  and  _397
REMARK  168  A    between atoms: _397  and  _398
REMARK  169  A    between atoms: _402  and  _404
REMARK  170  A    between atoms: _404  and  _405
REMARK  171  A    between atoms: _404  and  _407
REMARK  172  A    between atoms: _410  and  _412
REMARK  173  A    between atoms: _412  and  _413
REMARK  174  A    between atoms: _412  and  _415
REMARK  175  A    between atoms: _415  and  _416
REMARK  176  A    between atoms: _419  and  _421
REMARK  177  A    between atoms: _421  and  _422
REMARK  178  A    between atoms: _421  and  _424
REMARK  179  A    between atoms: _424  and  _425
REMARK  180  A    between atoms: _427  and  _429
REMARK  181  A    between atoms: _429  and  _430
REMARK  182  A    between atoms: _433  and  _435
REMARK  183  A    between atoms: _435  and  _436
REMARK  184  A    between atoms: _435  and  _438
REMARK  185  A    between atoms: _438  and  _439
REMARK  186  A    between atoms: _442  and  _444
REMARK  187  A    between atoms: _444  and  _445
REMARK  188  A    between atoms: _444  and  _447
REMARK  189  A    between atoms: _447  and  _448
REMARK  190  A    between atoms: _451  and  _453
REMARK  191  A    between atoms: _453  and  _454
REMARK  192  A    between atoms: _456  and  _458
REMARK  193  A    between atoms: _458  and  _459
REMARK  194  A    between atoms: _461  and  _463
REMARK  195  A    between atoms: _463  and  _464
REMARK  196  A    between atoms: _463  and  _466
REMARK  197  A    between atoms: _466  and  _467
REMARK  198  A    between atoms: _470  and  _472
REMARK  199  A    between atoms: _472  and  _473
REMARK  200  A    between atoms: _472  and  _475
REMARK  201  A    between atoms: _475  and  _476
REMARK  202  A    between atoms: _479  and  _481
REMARK  203  A    between atoms: _481  and  _482
REMARK  204  A    between atoms: _481  and  _484
REMARK  205  A    between atoms: _484  and  _485
REMARK  206  A    between atoms: _485  and  _486
REMARK  207  A    between atoms: _486  and  _487
REMARK  208  A    between atoms: _496  and  _498
REMARK  209  A    between atoms: _498  and  _499
REMARK  210  A    between atoms: _498  and  _501
REMARK  211  A    between atoms: _501  and  _502
REMARK  212  A    between atoms: _506  and  _507
REMARK  213  A    between atoms: _512  and  _514
REMARK  214  A    between atoms: _514  and  _515
REMARK  215  A    between atoms: _514  and  _517
REMARK  216  A    between atoms: _517  and  _518
REMARK  217  A    between atoms: _521  and  _523
REMARK  218  A    between atoms: _523  and  _524
REMARK  219  A    between atoms: _523  and  _526
REMARK  220  A    between atoms: _526  and  _527
REMARK  221  A    between atoms: _527  and  _528
REMARK  222  A    between atoms: _528  and  _529
REMARK  223  A    between atoms: _529  and  _530
REMARK  224  A    between atoms: _534  and  _536
REMARK  225  A    between atoms: _536  and  _537
REMARK  226  A    between atoms: _536  and  _539
REMARK  227  A    between atoms: _539  and  _540
REMARK  228  A    between atoms: _540  and  _541
REMARK  229  A    between atoms: _546  and  _548
REMARK  230  A    between atoms: _548  and  _549
REMARK  231  A    between atoms: _548  and  _551
REMARK  232  A    between atoms: _551  and  _552
REMARK  233  A    between atoms: _555  and  _557
REMARK  234  A    between atoms: _557  and  _558
REMARK  235  A    between atoms: _557  and  _560
REMARK  236  A    between atoms: _560  and  _561
REMARK  237  A    between atoms: _564  and  _566
REMARK  238  A    between atoms: _566  and  _567
REMARK  239  A    between atoms: _566  and  _569
REMARK  240  A    between atoms: _569  and  _570
REMARK  241  A    between atoms: _575  and  _577
REMARK  242  A    between atoms: _577  and  _578
REMARK  243  A    between atoms: _577  and  _580
REMARK  244  A    between atoms: _580  and  _581
REMARK  245  A    between atoms: _584  and  _586
REMARK  246  A    between atoms: _586  and  _587
REMARK  247  A    between atoms: _586  and  _589
REMARK  248  A    between atoms: _589  and  _590
REMARK  249  A    between atoms: _590  and  _591
REMARK  250  A    between atoms: _596  and  _598
REMARK  251  A    between atoms: _598  and  _599
REMARK  252  A    between atoms: _601  and  _603
REMARK  253  A    between atoms: _603  and  _604
REMARK  254  A    between atoms: _603  and  _606
REMARK  255  A    between atoms: _606  and  _607
REMARK  256  A    between atoms: _612  and  _614
REMARK  257  A    between atoms: _614  and  _615
REMARK  258  A    between atoms: _614  and  _617
REMARK  259  A    between atoms: _617  and  _618
REMARK  260  A    between atoms: _621  and  _623
REMARK  261  A    between atoms: _623  and  _624
REMARK  262  A    between atoms: _623  and  _626
REMARK  263  A    between atoms: _626  and  _627
REMARK                            x       y       z     vdW  Elec       q    Type
REMARK                         _______ _______ _______ _____ _____    ______ ____
ROOT
ATOM      1  O   HOH     1      91.805  83.161 176.939  0.00  0.00    +0.000 OA
ENDROOT
TORSDOF 0
REMARK  Name = ../refined-set-2016/3d2e/3d2e_pocket.pdb
REMARK  263 active torsions:
REMARK  status: ('A' for Active; 'I' for Inactive)
REMARK    1  A    between atoms: _1  and  _3
REMARK    2  A    between atoms: _3  and  _4
REMARK    3  A    between atoms: _3  and  _6
REMARK    4  A    between atoms: _6  and  _7
REMARK    5  A    between atoms: _10  and  _12
REMARK    6  A    between atoms: _12  and  _13
REMARK    7  A    between atoms: _12  and  _15
REMARK    8  A    between atoms: _15  and  _16
REMARK    9  A    between atoms: _19  and  _21
REMARK   10  A    between atoms: _21  and  _22
REMARK   11  A    between atoms: _24  and  _26
REMARK   12  A    between atoms: _26  and  _27
REMARK   13  A    between atoms: _26  and  _29
REMARK   14  A    between atoms: _29  and  _30
REMARK   15  A    between atoms: _35  and  _37
REMARK   16  A    between atoms: _37  and  _38
REMARK   17  A    between atoms: _37  and  _40
REMARK   18  A    between atoms: _40  and  _41
REMARK   19  A    between atoms: _46  and  _48
REMARK   20  A    between atoms: _48  and  _49
REMARK   21  A    between atoms: _48  and  _51
REMARK   22  A    between atoms: _51  and  _52
REMARK   23  A    between atoms: _57  and  _59
REMARK   24  A    between atoms: _59  and  _60
REMARK   25  A    between atoms: _59  and  _62
REMARK   26  A    between atoms: _62  and  _63
REMARK   27  A    between atoms: _65  and  _67
REMARK   28  A    between atoms: _67  and  _68
REMARK   29  A    between atoms: _67  and  _70
REMARK   30  A    between atoms: _73  and  _75
REMARK   31  A    between atoms: _75  and  _76
REMARK   32  A    between atoms: _75  and  _78
REMARK   33  A    between atoms: _78  and  _79
REMARK   34  A    between atoms: _81  and  _83
REMARK   35  A    between atoms: _83  and  _84
REMARK   36  A    between atoms: _83  and  _86
REMARK   37  A    between atoms: _86  and  _87
REMARK   38  A    between atoms: _90  and  _92
REMARK   39  A    between atoms: _92  and  _93
REMARK   40  A    between atoms: _92  and  _95
REMARK   41  A    between atoms: _95  and  _96
REMARK   42  A    between atoms: _98  and  _100
REMARK   43  A    between atoms: _100  and  _101
REMARK   44  A    between atoms: _100  and  _103
REMARK   45  A    between atoms: _103  and  _104
REMARK   46  A    between atoms: _104  and  _105
REMARK   47  A    between atoms: _105  and  _106
REMARK   48  A    between atoms: _106  and  _107
REMARK   49  A    between atoms: _111  and  _113
REMARK   50  A    between atoms: _113  and  _114
REMARK   51  A    between atoms: _113  and  _116
REMARK   52  A    between atoms: _116  and  _117
REMARK   53  A    between atoms: _117  and  _118
REMARK   54  A    between atoms: _118  and  _119
REMARK   55  A    between atoms: _128  and  _130
REMARK   56  A    between atoms: _130  and  _131
REMARK   57  A    between atoms: _134  and  _136
REMARK   58  A    between atoms: _136  and  _137
REMARK   59  A    between atoms: _136  and  _139
REMARK   60  A    between atoms: _143  and  _144
REMARK   61  A    between atoms: _149  and  _151
REMARK   62  A    between atoms: _151  and  _152
REMARK   63  A    between atoms: _151  and  _154
REMARK   64  A    between atoms: _154  and  _155
REMARK   65  A    between atoms: _165  and  _167
REMARK   66  A    between atoms: _167  and  _168
REMARK   67  A    between atoms: _167  and  _170
REMARK   68  A    between atoms: _170  and  _171
REMARK   69  A    between atoms: _174  and  _176
REMARK   70  A    between atoms: _176  and  _177
REMARK   71  A    between atoms: _176  and  _179
REMARK   72  A    between atoms: _179  and  _180
REMARK   73  A    between atoms: _183  and  _185
REMARK   74  A    between atoms: _185  and  _186
REMARK   75  A    between atoms: _185  and  _188
REMARK   76  A    between atoms: _188  and  _189
REMARK   77  A    between atoms: _192  and  _194
REMARK   78  A    between atoms: _194  and  _195
REMARK   79  A    between atoms: _197  and  _199
REMARK   80  A    between atoms: _199  and  _200
REMARK   81  A    between atoms: _199  and  _202
REMARK   82  A    between atoms: _202  and  _203
REMARK   83  A    between atoms: _208  and  _210
REMARK   84  A    between atoms: _210  and  _211
REMARK   85  A    between atoms: _210  and  _213
REMARK   86  A    between atoms: _213  and  _214
REMARK   87  A    between atoms: _216  and  _218
REMARK   88  A    between atoms: _218  and  _219
REMARK   89  A    between atoms: _218  and  _221
REMARK   90  A    between atoms: _221  and  _222
REMARK   91  A    between atoms: _224  and  _226
REMARK   92  A    between atoms: _226  and  _227
REMARK   93  A    between atoms: _226  and  _229
REMARK   94  A    between atoms: _229  and  _230
REMARK   95  A    between atoms: _235  and  _236
REMARK   96  A    between atoms: _238  and  _240
REMARK   97  A    between atoms: _240  and  _241
REMARK   98  A    between atoms: _240  and  _243
REMARK   99  A    between atoms: _243  and  _244
REMARK  100  A    between atoms: _247  and  _249
REMARK  101  A    between atoms: _249  and  _250
REMARK  102  A    between atoms: _249  and  _252
REMARK  103  A    between atoms: _252  and  _253
REMARK  104  A    between atoms: _256  and  _258
REMARK  105  A    between atoms: _258  and  _259
REMARK  106  A    between atoms: _258  and  _261
REMARK  107  A    between atoms: _261  and  _262
REMARK  108  A    between atoms: _262  and  _263
REMARK  109  A    between atoms: _263  and  _264
REMARK  110  A    between atoms: _264  and  _265
REMARK  111  A    between atoms: _269  and  _271
REMARK  112  A    between atoms: _271  and  _272
REMARK  113  A    between atoms: _271  and  _274
REMARK  114  A    between atoms: _274  and  _275
REMARK  115  A    between atoms: _281  and  _283
REMARK  116  A    between atoms: _283  and  _284
REMARK  117  A    between atoms: _286  and  _288
REMARK  118  A    between atoms: _288  and  _289
REMARK  119  A    between atoms: _291  and  _293
REMARK  120  A    between atoms: _293  and  _294
REMARK  121  A    between atoms: _293  and  _296
REMARK  122  A    between atoms: _296  and  _297
REMARK  123  A    between atoms: _297  and  _298
REMARK  124  A    between atoms: _298  and  _299
REMARK  125  A    between atoms: _308  and  _310
REMARK  126  A    between atoms: _310  and  _311
REMARK  127  A    between atoms: _310  and  _313
REMARK  128  A    between atoms: _313  and  _314
REMARK  129  A    between atoms: _317  and  _319
REMARK  130  A    between atoms: _319  and  _320
REMARK  131  A    between atoms: _319  and  _322
REMARK  132  A    between atoms: _322  and  _323
REMARK  133  A    between atoms: _329  and  _331
REMARK  134  A    between atoms: _331  and  _332
REMARK  135  A    between atoms: _331  and  _334
REMARK  136  A    between atoms: _334  and  _335
REMARK  137  A    between atoms: _338  and  _340
REMARK  138  A    between atoms: _340  and  _341
REMARK  139  A    between atoms: _344  and  _346
REMARK  140  A    between atoms: _346  and  _347
REMARK  141  A    between atoms: _346  and  _349
REMARK  142  A    between atoms: _349  and  _350
REMARK  143  A    between atoms: _350  and  _351
REMARK  144  A    between atoms: _354  and  _356
REMARK  145  A    between atoms: _356  and  _357
REMARK  146  A    between atoms: _356  and  _359
REMARK  147  A    between atoms: _359  and  _360
REMARK  148  A    between atoms: _360  and  _361
REMARK  149  A    between atoms: _361  and  _362
REMARK  150  A    between atoms: _362  and  _363
REMARK  151  A    between atoms: _367  and  _369
REMARK  152  A    between atoms: _369  and  _370
REMARK  153  A    between atoms: _369  and  _372
REMARK  154  A    between atoms: _372  and  _373
REMARK  155  A    between atoms: _376  and  _378
REMARK  156  A    between atoms: _378  and  _379
REMARK  157  A    between atoms: _378  and  _381
REMARK  158  A    between atoms: _381  and  _382
REMARK  159  A    between atoms: _382  and  _383
REMARK  160  A    between atoms: _383  and  _384
REMARK  161  A    between atoms: _384  and  _385
REMARK  162  A    between atoms: _389  and  _391
REMARK  163  A    between atoms: _391  and  _392
REMARK  164  A    between atoms: _391  and  _394
REMARK  165  A    between atoms: _394  and  _395
REMARK  166  A    between atoms: _395  and  _396
REMARK  167  A    between atoms: _396  and  _397
REMARK  168  A    between atoms: _397  and  _398
REMARK  169  A    between atoms: _402  and  _404
REMARK  170  A    between atoms: _404  and  _405
REMARK  171  A    between atoms: _404  and  _407
REMARK  172  A    between atoms: _410  and  _412
REMARK  173  A    between atoms: _412  and  _413
REMARK  174  A    between atoms: _412  and  _415
REMARK  175  A    between atoms: _415  and  _416
REMARK  176  A    between atoms: _419  and  _421
REMARK  177  A    between atoms: _421  and  _422
REMARK  178  A    between atoms: _421  and  _424
REMARK  179  A    between atoms: _424  and  _425
REMARK  180  A    between atoms: _427  and  _429
REMARK  181  A    between atoms: _429  and  _430
REMARK  182  A    between atoms: _433  and  _435
REMARK  183  A    between atoms: _435  and  _436
REMARK  184  A    between atoms: _435  and  _438
REMARK  185  A    between atoms: _438  and  _439
REMARK  186  A    between atoms: _442  and  _444
REMARK  187  A    between atoms: _444  and  _445
REMARK  188  A    between atoms: _444  and  _447
REMARK  189  A    between atoms: _447  and  _448
REMARK  190  A    between atoms: _451  and  _453
REMARK  191  A    between atoms: _453  and  _454
REMARK  192  A    between atoms: _456  and  _458
REMARK  193  A    between atoms: _458  and  _459
REMARK  194  A    between atoms: _461  and  _463
REMARK  195  A    between atoms: _463  and  _464
REMARK  196  A    between atoms: _463  and  _466
REMARK  197  A    between atoms: _466  and  _467
REMARK  198  A    between atoms: _470  and  _472
REMARK  199  A    between atoms: _472  and  _473
REMARK  200  A    between atoms: _472  and  _475
REMARK  201  A    between atoms: _475  and  _476
REMARK  202  A    between atoms: _479  and  _481
REMARK  203  A    between atoms: _481  and  _482
REMARK  204  A    between atoms: _481  and  _484
REMARK  205  A    between atoms: _484  and  _485
REMARK  206  A    between atoms: _485  and  _486
REMARK  207  A    between atoms: _486  and  _487
REMARK  208  A    between atoms: _496  and  _498
REMARK  209  A    between atoms: _498  and  _499
REMARK  210  A    between atoms: _498  and  _501
REMARK  211  A    between atoms: _501  and  _502
REMARK  212  A    between atoms: _506  and  _507
REMARK  213  A    between atoms: _512  and  _514
REMARK  214  A    between atoms: _514  and  _515
REMARK  215  A    between atoms: _514  and  _517
REMARK  216  A    between atoms: _517  and  _518
REMARK  217  A    between atoms: _521  and  _523
REMARK  218  A    between atoms: _523  and  _524
REMARK  219  A    between atoms: _523  and  _526
REMARK  220  A    between atoms: _526  and  _527
REMARK  221  A    between atoms: _527  and  _528
REMARK  222  A    between atoms: _528  and  _529
REMARK  223  A    between atoms: _529  and  _530
REMARK  224  A    between atoms: _534  and  _536
REMARK  225  A    between atoms: _536  and  _537
REMARK  226  A    between atoms: _536  and  _539
REMARK  227  A    between atoms: _539  and  _540
REMARK  228  A    between atoms: _540  and  _541
REMARK  229  A    between atoms: _546  and  _548
REMARK  230  A    between atoms: _548  and  _549
REMARK  231  A    between atoms: _548  and  _551
REMARK  232  A    between atoms: _551  and  _552
REMARK  233  A    between atoms: _555  and  _557
REMARK  234  A    between atoms: _557  and  _558
REMARK  235  A    between atoms: _557  and  _560
REMARK  236  A    between atoms: _560  and  _561
REMARK  237  A    between atoms: _564  and  _566
REMARK  238  A    between atoms: _566  and  _567
REMARK  239  A    between atoms: _566  and  _569
REMARK  240  A    between atoms: _569  and  _570
REMARK  241  A    between atoms: _575  and  _577
REMARK  242  A    between atoms: _577  and  _578
REMARK  243  A    between atoms: _577  and  _580
REMARK  244  A    between atoms: _580  and  _581
REMARK  245  A    between atoms: _584  and  _586
REMARK  246  A    between atoms: _586  and  _587
REMARK  247  A    between atoms: _586  and  _589
REMARK  248  A    between atoms: _589  and  _590
REMARK  249  A    between atoms: _590  and  _591
REMARK  250  A    between atoms: _596  and  _598
REMARK  251  A    between atoms: _598  and  _599
REMARK  252  A    between atoms: _601  and  _603
REMARK  253  A    between atoms: _603  and  _604
REMARK  254  A    between atoms: _603  and  _606
REMARK  255  A    between atoms: _606  and  _607
REMARK  256  A    between atoms: _612  and  _614
REMARK  257  A    between atoms: _614  and  _615
REMARK  258  A    between atoms: _614  and  _617
REMARK  259  A    between atoms: _617  and  _618
REMARK  260  A    between atoms: _621  and  _623
REMARK  261  A    between atoms: _623  and  _624
REMARK  262  A    between atoms: _623  and  _626
REMARK  263  A    between atoms: _626  and  _627
REMARK                            x       y       z     vdW  Elec       q    Type
REMARK                         _______ _______ _______ _____ _____    ______ ____
ROOT
ATOM      1  O   HOH     1      88.883  86.325 186.650  0.00  0.00    +0.000 OA
ENDROOT
TORSDOF 0
REMARK  Name = ../refined-set-2016/3d2e/3d2e_pocket.pdb
REMARK  263 active torsions:
REMARK  status: ('A' for Active; 'I' for Inactive)
REMARK    1  A    between atoms: _1  and  _3
REMARK    2  A    between atoms: _3  and  _4
REMARK    3  A    between atoms: _3  and  _6
REMARK    4  A    between atoms: _6  and  _7
REMARK    5  A    between atoms: _10  and  _12
REMARK    6  A    between atoms: _12  and  _13
REMARK    7  A    between atoms: _12  and  _15
REMARK    8  A    between atoms: _15  and  _16
REMARK    9  A    between atoms: _19  and  _21
REMARK   10  A    between atoms: _21  and  _22
REMARK   11  A    between atoms: _24  and  _26
REMARK   12  A    between atoms: _26  and  _27
REMARK   13  A    between atoms: _26  and  _29
REMARK   14  A    between atoms: _29  and  _30
REMARK   15  A    between atoms: _35  and  _37
REMARK   16  A    between atoms: _37  and  _38
REMARK   17  A    between atoms: _37  and  _40
REMARK   18  A    between atoms: _40  and  _41
REMARK   19  A    between atoms: _46  and  _48
REMARK   20  A    between atoms: _48  and  _49
REMARK   21  A    between atoms: _48  and  _51
REMARK   22  A    between atoms: _51  and  _52
REMARK   23  A    between atoms: _57  and  _59
REMARK   24  A    between atoms: _59  and  _60
REMARK   25  A    between atoms: _59  and  _62
REMARK   26  A    between atoms: _62  and  _63
REMARK   27  A    between atoms: _65  and  _67
REMARK   28  A    between atoms: _67  and  _68
REMARK   29  A    between atoms: _67  and  _70
REMARK   30  A    between atoms: _73  and  _75
REMARK   31  A    between atoms: _75  and  _76
REMARK   32  A    between atoms: _75  and  _78
REMARK   33  A    between atoms: _78  and  _79
REMARK   34  A    between atoms: _81  and  _83
REMARK   35  A    between atoms: _83  and  _84
REMARK   36  A    between atoms: _83  and  _86
REMARK   37  A    between atoms: _86  and  _87
REMARK   38  A    between atoms: _90  and  _92
REMARK   39  A    between atoms: _92  and  _93
REMARK   40  A    between atoms: _92  and  _95
REMARK   41  A    between atoms: _95  and  _96
REMARK   42  A    between atoms: _98  and  _100
REMARK   43  A    between atoms: _100  and  _101
REMARK   44  A    between atoms: _100  and  _103
REMARK   45  A    between atoms: _103  and  _104
REMARK   46  A    between atoms: _104  and  _105
REMARK   47  A    between atoms: _105  and  _106
REMARK   48  A    between atoms: _106  and  _107
REMARK   49  A    between atoms: _111  and  _113
REMARK   50  A    between atoms: _113  and  _114
REMARK   51  A    between atoms: _113  and  _116
REMARK   52  A    between atoms: _116  and  _117
REMARK   53  A    between atoms: _117  and  _118
REMARK   54  A    between atoms: _118  and  _119
REMARK   55  A    between atoms: _128  and  _130
REMARK   56  A    between atoms: _130  and  _131
REMARK   57  A    between atoms: _134  and  _136
REMARK   58  A    between atoms: _136  and  _137
REMARK   59  A    between atoms: _136  and  _139
REMARK   60  A    between atoms: _143  and  _144
REMARK   61  A    between atoms: _149  and  _151
REMARK   62  A    between atoms: _151  and  _152
REMARK   63  A    between atoms: _151  and  _154
REMARK   64  A    between atoms: _154  and  _155
REMARK   65  A    between atoms: _165  and  _167
REMARK   66  A    between atoms: _167  and  _168
REMARK   67  A    between atoms: _167  and  _170
REMARK   68  A    between atoms: _170  and  _171
REMARK   69  A    between atoms: _174  and  _176
REMARK   70  A    between atoms: _176  and  _177
REMARK   71  A    between atoms: _176  and  _179
REMARK   72  A    between atoms: _179  and  _180
REMARK   73  A    between atoms: _183  and  _185
REMARK   74  A    between atoms: _185  and  _186
REMARK   75  A    between atoms: _185  and  _188
REMARK   76  A    between atoms: _188  and  _189
REMARK   77  A    between atoms: _192  and  _194
REMARK   78  A    between atoms: _194  and  _195
REMARK   79  A    between atoms: _197  and  _199
REMARK   80  A    between atoms: _199  and  _200
REMARK   81  A    between atoms: _199  and  _202
REMARK   82  A    between atoms: _202  and  _203
REMARK   83  A    between atoms: _208  and  _210
REMARK   84  A    between atoms: _210  and  _211
REMARK   85  A    between atoms: _210  and  _213
REMARK   86  A    between atoms: _213  and  _214
REMARK   87  A    between atoms: _216  and  _218
REMARK   88  A    between atoms: _218  and  _219
REMARK   89  A    between atoms: _218  and  _221
REMARK   90  A    between atoms: _221  and  _222
REMARK   91  A    between atoms: _224  and  _226
REMARK   92  A    between atoms: _226  and  _227
REMARK   93  A    between atoms: _226  and  _229
REMARK   94  A    between atoms: _229  and  _230
REMARK   95  A    between atoms: _235  and  _236
REMARK   96  A    between atoms: _238  and  _240
REMARK   97  A    between atoms: _240  and  _241
REMARK   98  A    between atoms: _240  and  _243
REMARK   99  A    between atoms: _243  and  _244
REMARK  100  A    between atoms: _247  and  _249
REMARK  101  A    between atoms: _249  and  _250
REMARK  102  A    between atoms: _249  and  _252
REMARK  103  A    between atoms: _252  and  _253
REMARK  104  A    between atoms: _256  and  _258
REMARK  105  A    between atoms: _258  and  _259
REMARK  106  A    between atoms: _258  and  _261
REMARK  107  A    between atoms: _261  and  _262
REMARK  108  A    between atoms: _262  and  _263
REMARK  109  A    between atoms: _263  and  _264
REMARK  110  A    between atoms: _264  and  _265
REMARK  111  A    between atoms: _269  and  _271
REMARK  112  A    between atoms: _271  and  _272
REMARK  113  A    between atoms: _271  and  _274
REMARK  114  A    between atoms: _274  and  _275
REMARK  115  A    between atoms: _281  and  _283
REMARK  116  A    between atoms: _283  and  _284
REMARK  117  A    between atoms: _286  and  _288
REMARK  118  A    between atoms: _288  and  _289
REMARK  119  A    between atoms: _291  and  _293
REMARK  120  A    between atoms: _293  and  _294
REMARK  121  A    between atoms: _293  and  _296
REMARK  122  A    between atoms: _296  and  _297
REMARK  123  A    between atoms: _297  and  _298
REMARK  124  A    between atoms: _298  and  _299
REMARK  125  A    between atoms: _308  and  _310
REMARK  126  A    between atoms: _310  and  _311
REMARK  127  A    between atoms: _310  and  _313
REMARK  128  A    between atoms: _313  and  _314
REMARK  129  A    between atoms: _317  and  _319
REMARK  130  A    between atoms: _319  and  _320
REMARK  131  A    between atoms: _319  and  _322
REMARK  132  A    between atoms: _322  and  _323
REMARK  133  A    between atoms: _329  and  _331
REMARK  134  A    between atoms: _331  and  _332
REMARK  135  A    between atoms: _331  and  _334
REMARK  136  A    between atoms: _334  and  _335
REMARK  137  A    between atoms: _338  and  _340
REMARK  138  A    between atoms: _340  and  _341
REMARK  139  A    between atoms: _344  and  _346
REMARK  140  A    between atoms: _346  and  _347
REMARK  141  A    between atoms: _346  and  _349
REMARK  142  A    between atoms: _349  and  _350
REMARK  143  A    between atoms: _350  and  _351
REMARK  144  A    between atoms: _354  and  _356
REMARK  145  A    between atoms: _356  and  _357
REMARK  146  A    between atoms: _356  and  _359
REMARK  147  A    between atoms: _359  and  _360
REMARK  148  A    between atoms: _360  and  _361
REMARK  149  A    between atoms: _361  and  _362
REMARK  150  A    between atoms: _362  and  _363
REMARK  151  A    between atoms: _367  and  _369
REMARK  152  A    between atoms: _369  and  _370
REMARK  153  A    between atoms: _369  and  _372
REMARK  154  A    between atoms: _372  and  _373
REMARK  155  A    between atoms: _376  and  _378
REMARK  156  A    between atoms: _378  and  _379
REMARK  157  A    between atoms: _378  and  _381
REMARK  158  A    between atoms: _381  and  _382
REMARK  159  A    between atoms: _382  and  _383
REMARK  160  A    between atoms: _383  and  _384
REMARK  161  A    between atoms: _384  and  _385
REMARK  162  A    between atoms: _389  and  _391
REMARK  163  A    between atoms: _391  and  _392
REMARK  164  A    between atoms: _391  and  _394
REMARK  165  A    between atoms: _394  and  _395
REMARK  166  A    between atoms: _395  and  _396
REMARK  167  A    between atoms: _396  and  _397
REMARK  168  A    between atoms: _397  and  _398
REMARK  169  A    between atoms: _402  and  _404
REMARK  170  A    between atoms: _404  and  _405
REMARK  171  A    between atoms: _404  and  _407
REMARK  172  A    between atoms: _410  and  _412
REMARK  173  A    between atoms: _412  and  _413
REMARK  174  A    between atoms: _412  and  _415
REMARK  175  A    between atoms: _415  and  _416
REMARK  176  A    between atoms: _419  and  _421
REMARK  177  A    between atoms: _421  and  _422
REMARK  178  A    between atoms: _421  and  _424
REMARK  179  A    between atoms: _424  and  _425
REMARK  180  A    between atoms: _427  and  _429
REMARK  181  A    between atoms: _429  and  _430
REMARK  182  A    between atoms: _433  and  _435
REMARK  183  A    between atoms: _435  and  _436
REMARK  184  A    between atoms: _435  and  _438
REMARK  185  A    between atoms: _438  and  _439
REMARK  186  A    between atoms: _442  and  _444
REMARK  187  A    between atoms: _444  and  _445
REMARK  188  A    between atoms: _444  and  _447
REMARK  189  A    between atoms: _447  and  _448
REMARK  190  A    between atoms: _451  and  _453
REMARK  191  A    between atoms: _453  and  _454
REMARK  192  A    between atoms: _456  and  _458
REMARK  193  A    between atoms: _458  and  _459
REMARK  194  A    between atoms: _461  and  _463
REMARK  195  A    between atoms: _463  and  _464
REMARK  196  A    between atoms: _463  and  _466
REMARK  197  A    between atoms: _466  and  _467
REMARK  198  A    between atoms: _470  and  _472
REMARK  199  A    between atoms: _472  and  _473
REMARK  200  A    between atoms: _472  and  _475
REMARK  201  A    between atoms: _475  and  _476
REMARK  202  A    between atoms: _479  and  _481
REMARK  203  A    between atoms: _481  and  _482
REMARK  204  A    between atoms: _481  and  _484
REMARK  205  A    between atoms: _484  and  _485
REMARK  206  A    between atoms: _485  and  _486
REMARK  207  A    between atoms: _486  and  _487
REMARK  208  A    between atoms: _496  and  _498
REMARK  209  A    between atoms: _498  and  _499
REMARK  210  A    between atoms: _498  and  _501
REMARK  211  A    between atoms: _501  and  _502
REMARK  212  A    between atoms: _506  and  _507
REMARK  213  A    between atoms: _512  and  _514
REMARK  214  A    between atoms: _514  and  _515
REMARK  215  A    between atoms: _514  and  _517
REMARK  216  A    between atoms: _517  and  _518
REMARK  217  A    between atoms: _521  and  _523
REMARK  218  A    between atoms: _523  and  _524
REMARK  219  A    between atoms: _523  and  _526
REMARK  220  A    between atoms: _526  and  _527
REMARK  221  A    between atoms: _527  and  _528
REMARK  222  A    between atoms: _528  and  _529
REMARK  223  A    between atoms: _529  and  _530
REMARK  224  A    between atoms: _534  and  _536
REMARK  225  A    between atoms: _536  and  _537
REMARK  226  A    between atoms: _536  and  _539
REMARK  227  A    between atoms: _539  and  _540
REMARK  228  A    between atoms: _540  and  _541
REMARK  229  A    between atoms: _546  and  _548
REMARK  230  A    between atoms: _548  and  _549
REMARK  231  A    between atoms: _548  and  _551
REMARK  232  A    between atoms: _551  and  _552
REMARK  233  A    between atoms: _555  and  _557
REMARK  234  A    between atoms: _557  and  _558
REMARK  235  A    between atoms: _557  and  _560
REMARK  236  A    between atoms: _560  and  _561
REMARK  237  A    between atoms: _564  and  _566
REMARK  238  A    between atoms: _566  and  _567
REMARK  239  A    between atoms: _566  and  _569
REMARK  240  A    between atoms: _569  and  _570
REMARK  241  A    between atoms: _575  and  _577
REMARK  242  A    between atoms: _577  and  _578
REMARK  243  A    between atoms: _577  and  _580
REMARK  244  A    between atoms: _580  and  _581
REMARK  245  A    between atoms: _584  and  _586
REMARK  246  A    between atoms: _586  and  _587
REMARK  247  A    between atoms: _586  and  _589
REMARK  248  A    between atoms: _589  and  _590
REMARK  249  A    between atoms: _590  and  _591
REMARK  250  A    between atoms: _596  and  _598
REMARK  251  A    between atoms: _598  and  _599
REMARK  252  A    between atoms: _601  and  _603
REMARK  253  A    between atoms: _603  and  _604
REMARK  254  A    between atoms: _603  and  _606
REMARK  255  A    between atoms: _606  and  _607
REMARK  256  A    between atoms: _612  and  _614
REMARK  257  A    between atoms: _614  and  _615
REMARK  258  A    between atoms: _614  and  _617
REMARK  259  A    between atoms: _617  and  _618
REMARK  260  A    between atoms: _621  and  _623
REMARK  261  A    between atoms: _623  and  _624
REMARK  262  A    between atoms: _623  and  _626
REMARK  263  A    between atoms: _626  and  _627
REMARK                            x       y       z     vdW  Elec       q    Type
REMARK                         _______ _______ _______ _____ _____    ______ ____
ROOT
ATOM      1  O   HOH     1      82.900  90.243 172.571  0.00  0.00    +0.000 OA
ENDROOT
TORSDOF 0
REMARK  Name = ../refined-set-2016/3d2e/3d2e_pocket.pdb
REMARK  263 active torsions:
REMARK  status: ('A' for Active; 'I' for Inactive)
REMARK    1  A    between atoms: _1  and  _3
REMARK    2  A    between atoms: _3  and  _4
REMARK    3  A    between atoms: _3  and  _6
REMARK    4  A    between atoms: _6  and  _7
REMARK    5  A    between atoms: _10  and  _12
REMARK    6  A    between atoms: _12  and  _13
REMARK    7  A    between atoms: _12  and  _15
REMARK    8  A    between atoms: _15  and  _16
REMARK    9  A    between atoms: _19  and  _21
REMARK   10  A    between atoms: _21  and  _22
REMARK   11  A    between atoms: _24  and  _26
REMARK   12  A    between atoms: _26  and  _27
REMARK   13  A    between atoms: _26  and  _29
REMARK   14  A    between atoms: _29  and  _30
REMARK   15  A    between atoms: _35  and  _37
REMARK   16  A    between atoms: _37  and  _38
REMARK   17  A    between atoms: _37  and  _40
REMARK   18  A    between atoms: _40  and  _41
REMARK   19  A    between atoms: _46  and  _48
REMARK   20  A    between atoms: _48  and  _49
REMARK   21  A    between atoms: _48  and  _51
REMARK   22  A    between atoms: _51  and  _52
REMARK   23  A    between atoms: _57  and  _59
REMARK   24  A    between atoms: _59  and  _60
REMARK   25  A    between atoms: _59  and  _62
REMARK   26  A    between atoms: _62  and  _63
REMARK   27  A    between atoms: _65  and  _67
REMARK   28  A    between atoms: _67  and  _68
REMARK   29  A    between atoms: _67  and  _70
REMARK   30  A    between atoms: _73  and  _75
REMARK   31  A    between atoms: _75  and  _76
REMARK   32  A    between atoms: _75  and  _78
REMARK   33  A    between atoms: _78  and  _79
REMARK   34  A    between atoms: _81  and  _83
REMARK   35  A    between atoms: _83  and  _84
REMARK   36  A    between atoms: _83  and  _86
REMARK   37  A    between atoms: _86  and  _87
REMARK   38  A    between atoms: _90  and  _92
REMARK   39  A    between atoms: _92  and  _93
REMARK   40  A    between atoms: _92  and  _95
REMARK   41  A    between atoms: _95  and  _96
REMARK   42  A    between atoms: _98  and  _100
REMARK   43  A    between atoms: _100  and  _101
REMARK   44  A    between atoms: _100  and  _103
REMARK   45  A    between atoms: _103  and  _104
REMARK   46  A    between atoms: _104  and  _105
REMARK   47  A    between atoms: _105  and  _106
REMARK   48  A    between atoms: _106  and  _107
REMARK   49  A    between atoms: _111  and  _113
REMARK   50  A    between atoms: _113  and  _114
REMARK   51  A    between atoms: _113  and  _116
REMARK   52  A    between atoms: _116  and  _117
REMARK   53  A    between atoms: _117  and  _118
REMARK   54  A    between atoms: _118  and  _119
REMARK   55  A    between atoms: _128  and  _130
REMARK   56  A    between atoms: _130  and  _131
REMARK   57  A    between atoms: _134  and  _136
REMARK   58  A    between atoms: _136  and  _137
REMARK   59  A    between atoms: _136  and  _139
REMARK   60  A    between atoms: _143  and  _144
REMARK   61  A    between atoms: _149  and  _151
REMARK   62  A    between atoms: _151  and  _152
REMARK   63  A    between atoms: _151  and  _154
REMARK   64  A    between atoms: _154  and  _155
REMARK   65  A    between atoms: _165  and  _167
REMARK   66  A    between atoms: _167  and  _168
REMARK   67  A    between atoms: _167  and  _170
REMARK   68  A    between atoms: _170  and  _171
REMARK   69  A    between atoms: _174  and  _176
REMARK   70  A    between atoms: _176  and  _177
REMARK   71  A    between atoms: _176  and  _179
REMARK   72  A    between atoms: _179  and  _180
REMARK   73  A    between atoms: _183  and  _185
REMARK   74  A    between atoms: _185  and  _186
REMARK   75  A    between atoms: _185  and  _188
REMARK   76  A    between atoms: _188  and  _189
REMARK   77  A    between atoms: _192  and  _194
REMARK   78  A    between atoms: _194  and  _195
REMARK   79  A    between atoms: _197  and  _199
REMARK   80  A    between atoms: _199  and  _200
REMARK   81  A    between atoms: _199  and  _202
REMARK   82  A    between atoms: _202  and  _203
REMARK   83  A    between atoms: _208  and  _210
REMARK   84  A    between atoms: _210  and  _211
REMARK   85  A    between atoms: _210  and  _213
REMARK   86  A    between atoms: _213  and  _214
REMARK   87  A    between atoms: _216  and  _218
REMARK   88  A    between atoms: _218  and  _219
REMARK   89  A    between atoms: _218  and  _221
REMARK   90  A    between atoms: _221  and  _222
REMARK   91  A    between atoms: _224  and  _226
REMARK   92  A    between atoms: _226  and  _227
REMARK   93  A    between atoms: _226  and  _229
REMARK   94  A    between atoms: _229  and  _230
REMARK   95  A    between atoms: _235  and  _236
REMARK   96  A    between atoms: _238  and  _240
REMARK   97  A    between atoms: _240  and  _241
REMARK   98  A    between atoms: _240  and  _243
REMARK   99  A    between atoms: _243  and  _244
REMARK  100  A    between atoms: _247  and  _249
REMARK  101  A    between atoms: _249  and  _250
REMARK  102  A    between atoms: _249  and  _252
REMARK  103  A    between atoms: _252  and  _253
REMARK  104  A    between atoms: _256  and  _258
REMARK  105  A    between atoms: _258  and  _259
REMARK  106  A    between atoms: _258  and  _261
REMARK  107  A    between atoms: _261  and  _262
REMARK  108  A    between atoms: _262  and  _263
REMARK  109  A    between atoms: _263  and  _264
REMARK  110  A    between atoms: _264  and  _265
REMARK  111  A    between atoms: _269  and  _271
REMARK  112  A    between atoms: _271  and  _272
REMARK  113  A    between atoms: _271  and  _274
REMARK  114  A    between atoms: _274  and  _275
REMARK  115  A    between atoms: _281  and  _283
REMARK  116  A    between atoms: _283  and  _284
REMARK  117  A    between atoms: _286  and  _288
REMARK  118  A    between atoms: _288  and  _289
REMARK  119  A    between atoms: _291  and  _293
REMARK  120  A    between atoms: _293  and  _294
REMARK  121  A    between atoms: _293  and  _296
REMARK  122  A    between atoms: _296  and  _297
REMARK  123  A    between atoms: _297  and  _298
REMARK  124  A    between atoms: _298  and  _299
REMARK  125  A    between atoms: _308  and  _310
REMARK  126  A    between atoms: _310  and  _311
REMARK  127  A    between atoms: _310  and  _313
REMARK  128  A    between atoms: _313  and  _314
REMARK  129  A    between atoms: _317  and  _319
REMARK  130  A    between atoms: _319  and  _320
REMARK  131  A    between atoms: _319  and  _322
REMARK  132  A    between atoms: _322  and  _323
REMARK  133  A    between atoms: _329  and  _331
REMARK  134  A    between atoms: _331  and  _332
REMARK  135  A    between atoms: _331  and  _334
REMARK  136  A    between atoms: _334  and  _335
REMARK  137  A    between atoms: _338  and  _340
REMARK  138  A    between atoms: _340  and  _341
REMARK  139  A    between atoms: _344  and  _346
REMARK  140  A    between atoms: _346  and  _347
REMARK  141  A    between atoms: _346  and  _349
REMARK  142  A    between atoms: _349  and  _350
REMARK  143  A    between atoms: _350  and  _351
REMARK  144  A    between atoms: _354  and  _356
REMARK  145  A    between atoms: _356  and  _357
REMARK  146  A    between atoms: _356  and  _359
REMARK  147  A    between atoms: _359  and  _360
REMARK  148  A    between atoms: _360  and  _361
REMARK  149  A    between atoms: _361  and  _362
REMARK  150  A    between atoms: _362  and  _363
REMARK  151  A    between atoms: _367  and  _369
REMARK  152  A    between atoms: _369  and  _370
REMARK  153  A    between atoms: _369  and  _372
REMARK  154  A    between atoms: _372  and  _373
REMARK  155  A    between atoms: _376  and  _378
REMARK  156  A    between atoms: _378  and  _379
REMARK  157  A    between atoms: _378  and  _381
REMARK  158  A    between atoms: _381  and  _382
REMARK  159  A    between atoms: _382  and  _383
REMARK  160  A    between atoms: _383  and  _384
REMARK  161  A    between atoms: _384  and  _385
REMARK  162  A    between atoms: _389  and  _391
REMARK  163  A    between atoms: _391  and  _392
REMARK  164  A    between atoms: _391  and  _394
REMARK  165  A    between atoms: _394  and  _395
REMARK  166  A    between atoms: _395  and  _396
REMARK  167  A    between atoms: _396  and  _397
REMARK  168  A    between atoms: _397  and  _398
REMARK  169  A    between atoms: _402  and  _404
REMARK  170  A    between atoms: _404  and  _405
REMARK  171  A    between atoms: _404  and  _407
REMARK  172  A    between atoms: _410  and  _412
REMARK  173  A    between atoms: _412  and  _413
REMARK  174  A    between atoms: _412  and  _415
REMARK  175  A    between atoms: _415  and  _416
REMARK  176  A    between atoms: _419  and  _421
REMARK  177  A    between atoms: _421  and  _422
REMARK  178  A    between atoms: _421  and  _424
REMARK  179  A    between atoms: _424  and  _425
REMARK  180  A    between atoms: _427  and  _429
REMARK  181  A    between atoms: _429  and  _430
REMARK  182  A    between atoms: _433  and  _435
REMARK  183  A    between atoms: _435  and  _436
REMARK  184  A    between atoms: _435  and  _438
REMARK  185  A    between atoms: _438  and  _439
REMARK  186  A    between atoms: _442  and  _444
REMARK  187  A    between atoms: _444  and  _445
REMARK  188  A    between atoms: _444  and  _447
REMARK  189  A    between atoms: _447  and  _448
REMARK  190  A    between atoms: _451  and  _453
REMARK  191  A    between atoms: _453  and  _454
REMARK  192  A    between atoms: _456  and  _458
REMARK  193  A    between atoms: _458  and  _459
REMARK  194  A    between atoms: _461  and  _463
REMARK  195  A    between atoms: _463  and  _464
REMARK  196  A    between atoms: _463  and  _466
REMARK  197  A    between atoms: _466  and  _467
REMARK  198  A    between atoms: _470  and  _472
REMARK  199  A    between atoms: _472  and  _473
REMARK  200  A    between atoms: _472  and  _475
REMARK  201  A    between atoms: _475  and  _476
REMARK  202  A    between atoms: _479  and  _481
REMARK  203  A    between atoms: _481  and  _482
REMARK  204  A    between atoms: _481  and  _484
REMARK  205  A    between atoms: _484  and  _485
REMARK  206  A    between atoms: _485  and  _486
REMARK  207  A    between atoms: _486  and  _487
REMARK  208  A    between atoms: _496  and  _498
REMARK  209  A    between atoms: _498  and  _499
REMARK  210  A    between atoms: _498  and  _501
REMARK  211  A    between atoms: _501  and  _502
REMARK  212  A    between atoms: _506  and  _507
REMARK  213  A    between atoms: _512  and  _514
REMARK  214  A    between atoms: _514  and  _515
REMARK  215  A    between atoms: _514  and  _517
REMARK  216  A    between atoms: _517  and  _518
REMARK  217  A    between atoms: _521  and  _523
REMARK  218  A    between atoms: _523  and  _524
REMARK  219  A    between atoms: _523  and  _526
REMARK  220  A    between atoms: _526  and  _527
REMARK  221  A    between atoms: _527  and  _528
REMARK  222  A    between atoms: _528  and  _529
REMARK  223  A    between atoms: _529  and  _530
REMARK  224  A    between atoms: _534  and  _536
REMARK  225  A    between atoms: _536  and  _537
REMARK  226  A    between atoms: _536  and  _539
REMARK  227  A    between atoms: _539  and  _540
REMARK  228  A    between atoms: _540  and  _541
REMARK  229  A    between atoms: _546  and  _548
REMARK  230  A    between atoms: _548  and  _549
REMARK  231  A    between atoms: _548  and  _551
REMARK  232  A    between atoms: _551  and  _552
REMARK  233  A    between atoms: _555  and  _557
REMARK  234  A    between atoms: _557  and  _558
REMARK  235  A    between atoms: _557  and  _560
REMARK  236  A    between atoms: _560  and  _561
REMARK  237  A    between atoms: _564  and  _566
REMARK  238  A    between atoms: _566  and  _567
REMARK  239  A    between atoms: _566  and  _569
REMARK  240  A    between atoms: _569  and  _570
REMARK  241  A    between atoms: _575  and  _577
REMARK  242  A    between atoms: _577  and  _578
REMARK  243  A    between atoms: _577  and  _580
REMARK  244  A    between atoms: _580  and  _581
REMARK  245  A    between atoms: _584  and  _586
REMARK  246  A    between atoms: _586  and  _587
REMARK  247  A    between atoms: _586  and  _589
REMARK  248  A    between atoms: _589  and  _590
REMARK  249  A    between atoms: _590  and  _591
REMARK  250  A    between atoms: _596  and  _598
REMARK  251  A    between atoms: _598  and  _599
REMARK  252  A    between atoms: _601  and  _603
REMARK  253  A    between atoms: _603  and  _604
REMARK  254  A    between atoms: _603  and  _606
REMARK  255  A    between atoms: _606  and  _607
REMARK  256  A    between atoms: _612  and  _614
REMARK  257  A    between atoms: _614  and  _615
REMARK  258  A    between atoms: _614  and  _617
REMARK  259  A    between atoms: _617  and  _618
REMARK  260  A    between atoms: _621  and  _623
REMARK  261  A    between atoms: _623  and  _624
REMARK  262  A    between atoms: _623  and  _626
REMARK  263  A    between atoms: _626  and  _627
REMARK                            x       y       z     vdW  Elec       q    Type
REMARK                         _______ _______ _______ _____ _____    ______ ____
ROOT
ATOM      1  O   HOH     1      83.105  93.136 172.253  0.00  0.00    +0.000 OA
ENDROOT
TORSDOF 0
