REMARK  Name = ../refined-set-2016/1xkk/1xkk_pocket.pdb
REMARK  253 active torsions:
REMARK  status: ('A' for Active; 'I' for Inactive)
REMARK    1  A    between atoms: _1  and  _3
REMARK    2  A    between atoms: _3  and  _4
REMARK    3  A    between atoms: _3  and  _6
REMARK    4  A    between atoms: _9  and  _11
REMARK    5  A    between atoms: _11  and  _12
REMARK    6  A    between atoms: _11  and  _14
REMARK    7  A    between atoms: _14  and  _15
REMARK    8  A    between atoms: _18  and  _20
REMARK    9  A    between atoms: _20  and  _21
REMARK   10  A    between atoms: _23  and  _25
REMARK   11  A    between atoms: _25  and  _26
REMARK   12  A    between atoms: _25  and  _28
REMARK   13  A    between atoms: _28  and  _29
REMARK   14  A    between atoms: _31  and  _33
REMARK   15  A    between atoms: _33  and  _34
REMARK   16  A    between atoms: _36  and  _38
REMARK   17  A    between atoms: _38  and  _39
REMARK   18  A    between atoms: _38  and  _41
REMARK   19  A    between atoms: _41  and  _42
REMARK   20  A    between atoms: _48  and  _50
REMARK   21  A    between atoms: _50  and  _51
REMARK   22  A    between atoms: _50  and  _53
REMARK   23  A    between atoms: _53  and  _54
REMARK   24  A    between atoms: _57  and  _59
REMARK   25  A    between atoms: _59  and  _60
REMARK   26  A    between atoms: _59  and  _62
REMARK   27  A    between atoms: _65  and  _67
REMARK   28  A    between atoms: _67  and  _68
REMARK   29  A    between atoms: _67  and  _70
REMARK   30  A    between atoms: _70  and  _71
REMARK   31  A    between atoms: _76  and  _77
REMARK   32  A    between atoms: _79  and  _81
REMARK   33  A    between atoms: _81  and  _82
REMARK   34  A    between atoms: _81  and  _84
REMARK   35  A    between atoms: _84  and  _85
REMARK   36  A    between atoms: _85  and  _86
REMARK   37  A    between atoms: _86  and  _87
REMARK   38  A    between atoms: _87  and  _88
REMARK   39  A    between atoms: _92  and  _94
REMARK   40  A    between atoms: _94  and  _95
REMARK   41  A    between atoms: _98  and  _99
REMARK   42  A    between atoms: _104  and  _106
REMARK   43  A    between atoms: _106  and  _107
REMARK   44  A    between atoms: _106  and  _109
REMARK   45  A    between atoms: _112  and  _114
REMARK   46  A    between atoms: _114  and  _115
REMARK   47  A    between atoms: _118  and  _120
REMARK   48  A    between atoms: _120  and  _121
REMARK   49  A    between atoms: _120  and  _123
REMARK   50  A    between atoms: _123  and  _124
REMARK   51  A    between atoms: _127  and  _129
REMARK   52  A    between atoms: _129  and  _130
REMARK   53  A    between atoms: _129  and  _132
REMARK   54  A    between atoms: _132  and  _133
REMARK   55  A    between atoms: _133  and  _134
REMARK   56  A    between atoms: _134  and  _135
REMARK   57  A    between atoms: _135  and  _136
REMARK   58  A    between atoms: _140  and  _142
REMARK   59  A    between atoms: _142  and  _143
REMARK   60  A    between atoms: _142  and  _145
REMARK   61  A    between atoms: _145  and  _146
REMARK   62  A    between atoms: _146  and  _147
REMARK   63  A    between atoms: _150  and  _152
REMARK   64  A    between atoms: _152  and  _153
REMARK   65  A    between atoms: _152  and  _155
REMARK   66  A    between atoms: _155  and  _156
REMARK   67  A    between atoms: _159  and  _161
REMARK   68  A    between atoms: _161  and  _162
REMARK   69  A    between atoms: _161  and  _164
REMARK   70  A    between atoms: _164  and  _165
REMARK   71  A    between atoms: _165  and  _166
REMARK   72  A    between atoms: _169  and  _171
REMARK   73  A    between atoms: _171  and  _172
REMARK   74  A    between atoms: _175  and  _177
REMARK   75  A    between atoms: _177  and  _178
REMARK   76  A    between atoms: _177  and  _180
REMARK   77  A    between atoms: _183  and  _185
REMARK   78  A    between atoms: _185  and  _186
REMARK   79  A    between atoms: _185  and  _188
REMARK   80  A    between atoms: _188  and  _189
REMARK   81  A    between atoms: _189  and  _190
REMARK   82  A    between atoms: _192  and  _194
REMARK   83  A    between atoms: _194  and  _195
REMARK   84  A    between atoms: _198  and  _200
REMARK   85  A    between atoms: _200  and  _201
REMARK   86  A    between atoms: _200  and  _203
REMARK   87  A    between atoms: _206  and  _208
REMARK   88  A    between atoms: _208  and  _209
REMARK   89  A    between atoms: _208  and  _211
REMARK   90  A    between atoms: _214  and  _216
REMARK   91  A    between atoms: _216  and  _217
REMARK   92  A    between atoms: _216  and  _219
REMARK   93  A    between atoms: _221  and  _223
REMARK   94  A    between atoms: _223  and  _224
REMARK   95  A    between atoms: _223  and  _226
REMARK   96  A    between atoms: _226  and  _227
REMARK   97  A    between atoms: _227  and  _228
REMARK   98  A    between atoms: _228  and  _229
REMARK   99  A    between atoms: _238  and  _240
REMARK  100  A    between atoms: _240  and  _241
REMARK  101  A    between atoms: _240  and  _243
REMARK  102  A    between atoms: _243  and  _244
REMARK  103  A    between atoms: _247  and  _249
REMARK  104  A    between atoms: _249  and  _250
REMARK  105  A    between atoms: _249  and  _252
REMARK  106  A    between atoms: _252  and  _253
REMARK  107  A    between atoms: _256  and  _258
REMARK  108  A    between atoms: _258  and  _259
REMARK  109  A    between atoms: _261  and  _263
REMARK  110  A    between atoms: _263  and  _264
REMARK  111  A    between atoms: _263  and  _266
REMARK  112  A    between atoms: _266  and  _267
REMARK  113  A    between atoms: _267  and  _268
REMARK  114  A    between atoms: _273  and  _275
REMARK  115  A    between atoms: _275  and  _276
REMARK  116  A    between atoms: _275  and  _278
REMARK  117  A    between atoms: _278  and  _279
REMARK  118  A    between atoms: _282  and  _284
REMARK  119  A    between atoms: _284  and  _285
REMARK  120  A    between atoms: _284  and  _287
REMARK  121  A    between atoms: _287  and  _288
REMARK  122  A    between atoms: _291  and  _293
REMARK  123  A    between atoms: _293  and  _294
REMARK  124  A    between atoms: _293  and  _296
REMARK  125  A    between atoms: _296  and  _297
REMARK  126  A    between atoms: _300  and  _302
REMARK  127  A    between atoms: _302  and  _303
REMARK  128  A    between atoms: _302  and  _305
REMARK  129  A    between atoms: _305  and  _306
REMARK  130  A    between atoms: _306  and  _307
REMARK  131  A    between atoms: _312  and  _314
REMARK  132  A    between atoms: _314  and  _315
REMARK  133  A    between atoms: _314  and  _317
REMARK  134  A    between atoms: _317  and  _318
REMARK  135  A    between atoms: _321  and  _323
REMARK  136  A    between atoms: _323  and  _324
REMARK  137  A    between atoms: _323  and  _326
REMARK  138  A    between atoms: _326  and  _327
REMARK  139  A    between atoms: _327  and  _328
REMARK  140  A    between atoms: _331  and  _332
REMARK  141  A    between atoms: _337  and  _339
REMARK  142  A    between atoms: _339  and  _340
REMARK  143  A    between atoms: _339  and  _342
REMARK  144  A    between atoms: _342  and  _343
REMARK  145  A    between atoms: _349  and  _351
REMARK  146  A    between atoms: _351  and  _352
REMARK  147  A    between atoms: _354  and  _356
REMARK  148  A    between atoms: _356  and  _357
REMARK  149  A    between atoms: _356  and  _359
REMARK  150  A    between atoms: _361  and  _363
REMARK  151  A    between atoms: _363  and  _364
REMARK  152  A    between atoms: _363  and  _366
REMARK  153  A    between atoms: _366  and  _367
REMARK  154  A    between atoms: _370  and  _372
REMARK  155  A    between atoms: _372  and  _373
REMARK  156  A    between atoms: _372  and  _375
REMARK  157  A    between atoms: _375  and  _376
REMARK  158  A    between atoms: _379  and  _381
REMARK  159  A    between atoms: _381  and  _382
REMARK  160  A    between atoms: _381  and  _384
REMARK  161  A    between atoms: _384  and  _385
REMARK  162  A    between atoms: _388  and  _390
REMARK  163  A    between atoms: _390  and  _391
REMARK  164  A    between atoms: _390  and  _393
REMARK  165  A    between atoms: _393  and  _394
REMARK  166  A    between atoms: _399  and  _400
REMARK  167  A    between atoms: _402  and  _404
REMARK  168  A    between atoms: _404  and  _405
REMARK  169  A    between atoms: _404  and  _407
REMARK  170  A    between atoms: _407  and  _408
REMARK  171  A    between atoms: _408  and  _409
REMARK  172  A    between atoms: _409  and  _410
REMARK  173  A    between atoms: _419  and  _421
REMARK  174  A    between atoms: _421  and  _422
REMARK  175  A    between atoms: _421  and  _424
REMARK  176  A    between atoms: _424  and  _425
REMARK  177  A    between atoms: _428  and  _430
REMARK  178  A    between atoms: _430  and  _431
REMARK  179  A    between atoms: _430  and  _433
REMARK  180  A    between atoms: _433  and  _434
REMARK  181  A    between atoms: _439  and  _441
REMARK  182  A    between atoms: _441  and  _442
REMARK  183  A    between atoms: _445  and  _447
REMARK  184  A    between atoms: _447  and  _448
REMARK  185  A    between atoms: _447  and  _450
REMARK  186  A    between atoms: _450  and  _451
REMARK  187  A    between atoms: _451  and  _452
REMARK  188  A    between atoms: _452  and  _453
REMARK  189  A    between atoms: _462  and  _464
REMARK  190  A    between atoms: _464  and  _465
REMARK  191  A    between atoms: _464  and  _467
REMARK  192  A    between atoms: _467  and  _468
REMARK  193  A    between atoms: _473  and  _475
REMARK  194  A    between atoms: _475  and  _476
REMARK  195  A    between atoms: _475  and  _478
REMARK  196  A    between atoms: _481  and  _483
REMARK  197  A    between atoms: _483  and  _484
REMARK  198  A    between atoms: _483  and  _486
REMARK  199  A    between atoms: _486  and  _487
REMARK  200  A    between atoms: _490  and  _492
REMARK  201  A    between atoms: _492  and  _493
REMARK  202  A    between atoms: _492  and  _495
REMARK  203  A    between atoms: _498  and  _500
REMARK  204  A    between atoms: _500  and  _501
REMARK  205  A    between atoms: _500  and  _503
REMARK  206  A    between atoms: _503  and  _504
REMARK  207  A    between atoms: _504  and  _505
REMARK  208  A    between atoms: _505  and  _506
REMARK  209  A    between atoms: _506  and  _507
REMARK  210  A    between atoms: _511  and  _513
REMARK  211  A    between atoms: _513  and  _514
REMARK  212  A    between atoms: _513  and  _516
REMARK  213  A    between atoms: _516  and  _517
REMARK  214  A    between atoms: _520  and  _522
REMARK  215  A    between atoms: _522  and  _523
REMARK  216  A    between atoms: _522  and  _525
REMARK  217  A    between atoms: _525  and  _526
REMARK  218  A    between atoms: _529  and  _531
REMARK  219  A    between atoms: _531  and  _532
REMARK  220  A    between atoms: _531  and  _534
REMARK  221  A    between atoms: _534  and  _535
REMARK  222  A    between atoms: _538  and  _540
REMARK  223  A    between atoms: _540  and  _541
REMARK  224  A    between atoms: _540  and  _543
REMARK  225  A    between atoms: _543  and  _544
REMARK  226  A    between atoms: _550  and  _552
REMARK  227  A    between atoms: _552  and  _553
REMARK  228  A    between atoms: _555  and  _557
REMARK  229  A    between atoms: _557  and  _558
REMARK  230  A    between atoms: _557  and  _560
REMARK  231  A    between atoms: _560  and  _561
REMARK  232  A    between atoms: _564  and  _566
REMARK  233  A    between atoms: _566  and  _567
REMARK  234  A    between atoms: _570  and  _572
REMARK  235  A    between atoms: _572  and  _573
REMARK  236  A    between atoms: _572  and  _575
REMARK  237  A    between atoms: _575  and  _576
REMARK  238  A    between atoms: _586  and  _588
REMARK  239  A    between atoms: _588  and  _589
REMARK  240  A    between atoms: _588  and  _591
REMARK  241  A    between atoms: _591  and  _592
REMARK  242  A    between atoms: _592  and  _593
REMARK  243  A    between atoms: _596  and  _598
REMARK  244  A    between atoms: _598  and  _599
REMARK  245  A    between atoms: _601  and  _603
REMARK  246  A    between atoms: _603  and  _604
REMARK  247  A    between atoms: _603  and  _606
REMARK  248  A    between atoms: _606  and  _607
REMARK  249  A    between atoms: _610  and  _612
REMARK  250  A    between atoms: _612  and  _613
REMARK  251  A    between atoms: _612  and  _615
REMARK  252  A    between atoms: _615  and  _616
REMARK  253  A    between atoms: _616  and  _617
REMARK                            x       y       z     vdW  Elec       q    Type
REMARK                         _______ _______ _______ _____ _____    ______ ____
ROOT
ATOM      1  C   LEU A   2      19.510  26.836  35.259  0.00  0.00    +0.241 C 
ATOM      2  N   GLY A   3      20.232  27.161  36.325  0.00  0.00    -0.295 N 
ATOM      3  H   GLY A   3      19.781  27.211  37.261  0.00  0.00    +0.150 HD
ATOM      4  O   LEU A   2      19.994  26.750  34.138  0.00  0.00    -0.273 OA
ENDROOT
BRANCH   1   5
ATOM      5  CA  LEU A   2      18.029  26.532  35.489  0.00  0.00    +0.149 C 
BRANCH   5   7
ATOM      6  C   VAL A   1      18.059  24.154  35.901  0.00  0.00    +0.238 C 
ATOM      7  N   LEU A   2      17.993  25.388  36.390  0.00  0.00    -0.297 N 
ATOM      8  H   LEU A   2      17.916  25.537  37.416  0.00  0.00    +0.150 HD
ATOM      9  O   VAL A   1      18.094  23.922  34.691  0.00  0.00    -0.274 OA
BRANCH   6  10
ATOM     10  CA  VAL A   1      18.082  23.011  36.907  0.00  0.00    +0.145 C 
BRANCH  10  11
ATOM     11  CB  VAL A   1      19.501  22.401  36.849  0.00  0.00    +0.025 C 
ATOM     12  CG2 VAL A   1      19.676  21.363  37.937  0.00  0.00    +0.002 C 
ATOM     13  CG1 VAL A   1      20.548  23.508  36.984  0.00  0.00    +0.002 C 
ENDBRANCH  10  11
BRANCH  10  14
ATOM     14  N   VAL A   1      17.054  22.032  36.572  0.00  0.00    -0.238 NA
ATOM     15  H   VAL A   1      17.262  21.309  35.854  0.00  0.00    +0.142 HD
ENDBRANCH  10  14
ENDBRANCH   6  10
ENDBRANCH   5   7
BRANCH   5  16
ATOM     16  CB  LEU A   2      17.316  27.744  36.095  0.00  0.00    +0.029 C 
BRANCH  16  17
ATOM     17  CG  LEU A   2      15.798  27.548  36.006  0.00  0.00    +0.002 C 
ATOM     18  CD2 LEU A   2      15.097  28.620  36.820  0.00  0.00    +0.000 C 
ATOM     19  CD1 LEU A   2      15.344  27.610  34.561  0.00  0.00    +0.000 C 
ENDBRANCH  16  17
ENDBRANCH   5  16
ENDBRANCH   1   5
BRANCH   2  20
ATOM     20  CA  GLY A   3      21.646  27.446  36.189  0.00  0.00    +0.176 C 
BRANCH  20  21
ATOM     21  C   GLY A   3      22.342  27.715  37.509  0.00  0.00    +0.243 C 
ATOM     22  O   GLY A   3      21.695  27.882  38.539  0.00  0.00    -0.273 OA
ATOM     23  N   SER A   4      23.670  27.756  37.481  0.00  0.00    -0.295 N 
ATOM     24  H   SER A   4      24.165  27.600  36.580  0.00  0.00    +0.150 HD
BRANCH  23  25
ATOM     25  CA  SER A   4      24.447  28.015  38.688  0.00  0.00    +0.178 C 
BRANCH  25  26
ATOM     26  C   SER A   4      24.943  29.459  38.718  0.00  0.00    +0.243 C 
ATOM     27  N   GLY A   5      24.623  30.170  39.796  0.00  0.00    -0.296 N 
ATOM     28  H   GLY A   5      24.059  29.734  40.554  0.00  0.00    +0.150 HD
ATOM     29  O   SER A   4      25.598  29.922  37.781  0.00  0.00    -0.273 OA
BRANCH  27  30
ATOM     30  CA  GLY A   5      25.055  31.549  39.922  0.00  0.00    +0.163 C 
BRANCH  30  31
ATOM     31  C   GLY A   5      26.295  31.680  40.789  0.00  0.00    +0.229 C 
ATOM     32  O   GLY A   5      26.986  30.691  41.055  0.00  0.00    -0.286 OA
ENDBRANCH  30  31
ENDBRANCH  27  30
ENDBRANCH  25  26
BRANCH  25  33
ATOM     33  CB  SER A   4      25.643  27.066  38.759  0.00  0.00    +0.166 C 
BRANCH  33  34
ATOM     34  OG  SER A   4      26.473  27.276  37.628  0.00  0.00    -0.380 OA
ATOM     35  H   SER A   4      26.792  28.213  37.623  0.00  0.00    +0.211 HD
ENDBRANCH  33  34
ENDBRANCH  25  33
ENDBRANCH  23  25
ENDBRANCH  20  21
ENDBRANCH   2  20
TORSDOF 15
REMARK  Name = ../refined-set-2016/1xkk/1xkk_pocket.pdb
REMARK  253 active torsions:
REMARK  status: ('A' for Active; 'I' for Inactive)
REMARK    1  A    between atoms: _1  and  _3
REMARK    2  A    between atoms: _3  and  _4
REMARK    3  A    between atoms: _3  and  _6
REMARK    4  A    between atoms: _9  and  _11
REMARK    5  A    between atoms: _11  and  _12
REMARK    6  A    between atoms: _11  and  _14
REMARK    7  A    between atoms: _14  and  _15
REMARK    8  A    between atoms: _18  and  _20
REMARK    9  A    between atoms: _20  and  _21
REMARK   10  A    between atoms: _23  and  _25
REMARK   11  A    between atoms: _25  and  _26
REMARK   12  A    between atoms: _25  and  _28
REMARK   13  A    between atoms: _28  and  _29
REMARK   14  A    between atoms: _31  and  _33
REMARK   15  A    between atoms: _33  and  _34
REMARK   16  A    between atoms: _36  and  _38
REMARK   17  A    between atoms: _38  and  _39
REMARK   18  A    between atoms: _38  and  _41
REMARK   19  A    between atoms: _41  and  _42
REMARK   20  A    between atoms: _48  and  _50
REMARK   21  A    between atoms: _50  and  _51
REMARK   22  A    between atoms: _50  and  _53
REMARK   23  A    between atoms: _53  and  _54
REMARK   24  A    between atoms: _57  and  _59
REMARK   25  A    between atoms: _59  and  _60
REMARK   26  A    between atoms: _59  and  _62
REMARK   27  A    between atoms: _65  and  _67
REMARK   28  A    between atoms: _67  and  _68
REMARK   29  A    between atoms: _67  and  _70
REMARK   30  A    between atoms: _70  and  _71
REMARK   31  A    between atoms: _76  and  _77
REMARK   32  A    between atoms: _79  and  _81
REMARK   33  A    between atoms: _81  and  _82
REMARK   34  A    between atoms: _81  and  _84
REMARK   35  A    between atoms: _84  and  _85
REMARK   36  A    between atoms: _85  and  _86
REMARK   37  A    between atoms: _86  and  _87
REMARK   38  A    between atoms: _87  and  _88
REMARK   39  A    between atoms: _92  and  _94
REMARK   40  A    between atoms: _94  and  _95
REMARK   41  A    between atoms: _98  and  _99
REMARK   42  A    between atoms: _104  and  _106
REMARK   43  A    between atoms: _106  and  _107
REMARK   44  A    between atoms: _106  and  _109
REMARK   45  A    between atoms: _112  and  _114
REMARK   46  A    between atoms: _114  and  _115
REMARK   47  A    between atoms: _118  and  _120
REMARK   48  A    between atoms: _120  and  _121
REMARK   49  A    between atoms: _120  and  _123
REMARK   50  A    between atoms: _123  and  _124
REMARK   51  A    between atoms: _127  and  _129
REMARK   52  A    between atoms: _129  and  _130
REMARK   53  A    between atoms: _129  and  _132
REMARK   54  A    between atoms: _132  and  _133
REMARK   55  A    between atoms: _133  and  _134
REMARK   56  A    between atoms: _134  and  _135
REMARK   57  A    between atoms: _135  and  _136
REMARK   58  A    between atoms: _140  and  _142
REMARK   59  A    between atoms: _142  and  _143
REMARK   60  A    between atoms: _142  and  _145
REMARK   61  A    between atoms: _145  and  _146
REMARK   62  A    between atoms: _146  and  _147
REMARK   63  A    between atoms: _150  and  _152
REMARK   64  A    between atoms: _152  and  _153
REMARK   65  A    between atoms: _152  and  _155
REMARK   66  A    between atoms: _155  and  _156
REMARK   67  A    between atoms: _159  and  _161
REMARK   68  A    between atoms: _161  and  _162
REMARK   69  A    between atoms: _161  and  _164
REMARK   70  A    between atoms: _164  and  _165
REMARK   71  A    between atoms: _165  and  _166
REMARK   72  A    between atoms: _169  and  _171
REMARK   73  A    between atoms: _171  and  _172
REMARK   74  A    between atoms: _175  and  _177
REMARK   75  A    between atoms: _177  and  _178
REMARK   76  A    between atoms: _177  and  _180
REMARK   77  A    between atoms: _183  and  _185
REMARK   78  A    between atoms: _185  and  _186
REMARK   79  A    between atoms: _185  and  _188
REMARK   80  A    between atoms: _188  and  _189
REMARK   81  A    between atoms: _189  and  _190
REMARK   82  A    between atoms: _192  and  _194
REMARK   83  A    between atoms: _194  and  _195
REMARK   84  A    between atoms: _198  and  _200
REMARK   85  A    between atoms: _200  and  _201
REMARK   86  A    between atoms: _200  and  _203
REMARK   87  A    between atoms: _206  and  _208
REMARK   88  A    between atoms: _208  and  _209
REMARK   89  A    between atoms: _208  and  _211
REMARK   90  A    between atoms: _214  and  _216
REMARK   91  A    between atoms: _216  and  _217
REMARK   92  A    between atoms: _216  and  _219
REMARK   93  A    between atoms: _221  and  _223
REMARK   94  A    between atoms: _223  and  _224
REMARK   95  A    between atoms: _223  and  _226
REMARK   96  A    between atoms: _226  and  _227
REMARK   97  A    between atoms: _227  and  _228
REMARK   98  A    between atoms: _228  and  _229
REMARK   99  A    between atoms: _238  and  _240
REMARK  100  A    between atoms: _240  and  _241
REMARK  101  A    between atoms: _240  and  _243
REMARK  102  A    between atoms: _243  and  _244
REMARK  103  A    between atoms: _247  and  _249
REMARK  104  A    between atoms: _249  and  _250
REMARK  105  A    between atoms: _249  and  _252
REMARK  106  A    between atoms: _252  and  _253
REMARK  107  A    between atoms: _256  and  _258
REMARK  108  A    between atoms: _258  and  _259
REMARK  109  A    between atoms: _261  and  _263
REMARK  110  A    between atoms: _263  and  _264
REMARK  111  A    between atoms: _263  and  _266
REMARK  112  A    between atoms: _266  and  _267
REMARK  113  A    between atoms: _267  and  _268
REMARK  114  A    between atoms: _273  and  _275
REMARK  115  A    between atoms: _275  and  _276
REMARK  116  A    between atoms: _275  and  _278
REMARK  117  A    between atoms: _278  and  _279
REMARK  118  A    between atoms: _282  and  _284
REMARK  119  A    between atoms: _284  and  _285
REMARK  120  A    between atoms: _284  and  _287
REMARK  121  A    between atoms: _287  and  _288
REMARK  122  A    between atoms: _291  and  _293
REMARK  123  A    between atoms: _293  and  _294
REMARK  124  A    between atoms: _293  and  _296
REMARK  125  A    between atoms: _296  and  _297
REMARK  126  A    between atoms: _300  and  _302
REMARK  127  A    between atoms: _302  and  _303
REMARK  128  A    between atoms: _302  and  _305
REMARK  129  A    between atoms: _305  and  _306
REMARK  130  A    between atoms: _306  and  _307
REMARK  131  A    between atoms: _312  and  _314
REMARK  132  A    between atoms: _314  and  _315
REMARK  133  A    between atoms: _314  and  _317
REMARK  134  A    between atoms: _317  and  _318
REMARK  135  A    between atoms: _321  and  _323
REMARK  136  A    between atoms: _323  and  _324
REMARK  137  A    between atoms: _323  and  _326
REMARK  138  A    between atoms: _326  and  _327
REMARK  139  A    between atoms: _327  and  _328
REMARK  140  A    between atoms: _331  and  _332
REMARK  141  A    between atoms: _337  and  _339
REMARK  142  A    between atoms: _339  and  _340
REMARK  143  A    between atoms: _339  and  _342
REMARK  144  A    between atoms: _342  and  _343
REMARK  145  A    between atoms: _349  and  _351
REMARK  146  A    between atoms: _351  and  _352
REMARK  147  A    between atoms: _354  and  _356
REMARK  148  A    between atoms: _356  and  _357
REMARK  149  A    between atoms: _356  and  _359
REMARK  150  A    between atoms: _361  and  _363
REMARK  151  A    between atoms: _363  and  _364
REMARK  152  A    between atoms: _363  and  _366
REMARK  153  A    between atoms: _366  and  _367
REMARK  154  A    between atoms: _370  and  _372
REMARK  155  A    between atoms: _372  and  _373
REMARK  156  A    between atoms: _372  and  _375
REMARK  157  A    between atoms: _375  and  _376
REMARK  158  A    between atoms: _379  and  _381
REMARK  159  A    between atoms: _381  and  _382
REMARK  160  A    between atoms: _381  and  _384
REMARK  161  A    between atoms: _384  and  _385
REMARK  162  A    between atoms: _388  and  _390
REMARK  163  A    between atoms: _390  and  _391
REMARK  164  A    between atoms: _390  and  _393
REMARK  165  A    between atoms: _393  and  _394
REMARK  166  A    between atoms: _399  and  _400
REMARK  167  A    between atoms: _402  and  _404
REMARK  168  A    between atoms: _404  and  _405
REMARK  169  A    between atoms: _404  and  _407
REMARK  170  A    between atoms: _407  and  _408
REMARK  171  A    between atoms: _408  and  _409
REMARK  172  A    between atoms: _409  and  _410
REMARK  173  A    between atoms: _419  and  _421
REMARK  174  A    between atoms: _421  and  _422
REMARK  175  A    between atoms: _421  and  _424
REMARK  176  A    between atoms: _424  and  _425
REMARK  177  A    between atoms: _428  and  _430
REMARK  178  A    between atoms: _430  and  _431
REMARK  179  A    between atoms: _430  and  _433
REMARK  180  A    between atoms: _433  and  _434
REMARK  181  A    between atoms: _439  and  _441
REMARK  182  A    between atoms: _441  and  _442
REMARK  183  A    between atoms: _445  and  _447
REMARK  184  A    between atoms: _447  and  _448
REMARK  185  A    between atoms: _447  and  _450
REMARK  186  A    between atoms: _450  and  _451
REMARK  187  A    between atoms: _451  and  _452
REMARK  188  A    between atoms: _452  and  _453
REMARK  189  A    between atoms: _462  and  _464
REMARK  190  A    between atoms: _464  and  _465
REMARK  191  A    between atoms: _464  and  _467
REMARK  192  A    between atoms: _467  and  _468
REMARK  193  A    between atoms: _473  and  _475
REMARK  194  A    between atoms: _475  and  _476
REMARK  195  A    between atoms: _475  and  _478
REMARK  196  A    between atoms: _481  and  _483
REMARK  197  A    between atoms: _483  and  _484
REMARK  198  A    between atoms: _483  and  _486
REMARK  199  A    between atoms: _486  and  _487
REMARK  200  A    between atoms: _490  and  _492
REMARK  201  A    between atoms: _492  and  _493
REMARK  202  A    between atoms: _492  and  _495
REMARK  203  A    between atoms: _498  and  _500
REMARK  204  A    between atoms: _500  and  _501
REMARK  205  A    between atoms: _500  and  _503
REMARK  206  A    between atoms: _503  and  _504
REMARK  207  A    between atoms: _504  and  _505
REMARK  208  A    between atoms: _505  and  _506
REMARK  209  A    between atoms: _506  and  _507
REMARK  210  A    between atoms: _511  and  _513
REMARK  211  A    between atoms: _513  and  _514
REMARK  212  A    between atoms: _513  and  _516
REMARK  213  A    between atoms: _516  and  _517
REMARK  214  A    between atoms: _520  and  _522
REMARK  215  A    between atoms: _522  and  _523
REMARK  216  A    between atoms: _522  and  _525
REMARK  217  A    between atoms: _525  and  _526
REMARK  218  A    between atoms: _529  and  _531
REMARK  219  A    between atoms: _531  and  _532
REMARK  220  A    between atoms: _531  and  _534
REMARK  221  A    between atoms: _534  and  _535
REMARK  222  A    between atoms: _538  and  _540
REMARK  223  A    between atoms: _540  and  _541
REMARK  224  A    between atoms: _540  and  _543
REMARK  225  A    between atoms: _543  and  _544
REMARK  226  A    between atoms: _550  and  _552
REMARK  227  A    between atoms: _552  and  _553
REMARK  228  A    between atoms: _555  and  _557
REMARK  229  A    between atoms: _557  and  _558
REMARK  230  A    between atoms: _557  and  _560
REMARK  231  A    between atoms: _560  and  _561
REMARK  232  A    between atoms: _564  and  _566
REMARK  233  A    between atoms: _566  and  _567
REMARK  234  A    between atoms: _570  and  _572
REMARK  235  A    between atoms: _572  and  _573
REMARK  236  A    between atoms: _572  and  _575
REMARK  237  A    between atoms: _575  and  _576
REMARK  238  A    between atoms: _586  and  _588
REMARK  239  A    between atoms: _588  and  _589
REMARK  240  A    between atoms: _588  and  _591
REMARK  241  A    between atoms: _591  and  _592
REMARK  242  A    between atoms: _592  and  _593
REMARK  243  A    between atoms: _596  and  _598
REMARK  244  A    between atoms: _598  and  _599
REMARK  245  A    between atoms: _601  and  _603
REMARK  246  A    between atoms: _603  and  _604
REMARK  247  A    between atoms: _603  and  _606
REMARK  248  A    between atoms: _606  and  _607
REMARK  249  A    between atoms: _610  and  _612
REMARK  250  A    between atoms: _612  and  _613
REMARK  251  A    between atoms: _612  and  _615
REMARK  252  A    between atoms: _615  and  _616
REMARK  253  A    between atoms: _616  and  _617
REMARK                            x       y       z     vdW  Elec       q    Type
REMARK                         _______ _______ _______ _____ _____    ______ ____
ROOT
ATOM      1  CB  PHE A   1      24.662  34.071  45.579  0.00  0.00    +0.051 C 
ENDROOT
BRANCH   1   2
ATOM      2  CG  PHE A   1      25.343  35.409  45.428  0.00  0.00    -0.020 A 
ATOM      3  CD2 PHE A   1      26.153  35.912  46.442  0.00  0.00    -0.004 A 
ATOM      4  CE2 PHE A   1      26.790  37.144  46.308  0.00  0.00    -0.000 A 
ATOM      5  CZ  PHE A   1      26.618  37.889  45.146  0.00  0.00    -0.000 A 
ATOM      6  CE1 PHE A   1      25.811  37.396  44.124  0.00  0.00    -0.000 A 
ATOM      7  CD1 PHE A   1      25.180  36.161  44.270  0.00  0.00    -0.004 A 
ENDBRANCH   1   2
BRANCH   1   8
ATOM      8  CA  PHE A   1      25.643  32.940  45.242  0.00  0.00    +0.137 C 
BRANCH   8   9
ATOM      9  N   PHE A   1      26.091  33.042  43.859  0.00  0.00    -0.239 NA
ATOM     10  H   PHE A   1      25.387  33.098  43.096  0.00  0.00    +0.142 HD
ENDBRANCH   8   9
BRANCH   8  11
ATOM     11  C   PHE A   1      24.983  31.591  45.501  0.00  0.00    +0.224 C 
ATOM     12  O   PHE A   1      24.890  31.145  46.650  0.00  0.00    -0.287 OA
ENDBRANCH   8  11
ENDBRANCH   1   8
TORSDOF 4
REMARK  Name = ../refined-set-2016/1xkk/1xkk_pocket.pdb
REMARK  253 active torsions:
REMARK  status: ('A' for Active; 'I' for Inactive)
REMARK    1  A    between atoms: _1  and  _3
REMARK    2  A    between atoms: _3  and  _4
REMARK    3  A    between atoms: _3  and  _6
REMARK    4  A    between atoms: _9  and  _11
REMARK    5  A    between atoms: _11  and  _12
REMARK    6  A    between atoms: _11  and  _14
REMARK    7  A    between atoms: _14  and  _15
REMARK    8  A    between atoms: _18  and  _20
REMARK    9  A    between atoms: _20  and  _21
REMARK   10  A    between atoms: _23  and  _25
REMARK   11  A    between atoms: _25  and  _26
REMARK   12  A    between atoms: _25  and  _28
REMARK   13  A    between atoms: _28  and  _29
REMARK   14  A    between atoms: _31  and  _33
REMARK   15  A    between atoms: _33  and  _34
REMARK   16  A    between atoms: _36  and  _38
REMARK   17  A    between atoms: _38  and  _39
REMARK   18  A    between atoms: _38  and  _41
REMARK   19  A    between atoms: _41  and  _42
REMARK   20  A    between atoms: _48  and  _50
REMARK   21  A    between atoms: _50  and  _51
REMARK   22  A    between atoms: _50  and  _53
REMARK   23  A    between atoms: _53  and  _54
REMARK   24  A    between atoms: _57  and  _59
REMARK   25  A    between atoms: _59  and  _60
REMARK   26  A    between atoms: _59  and  _62
REMARK   27  A    between atoms: _65  and  _67
REMARK   28  A    between atoms: _67  and  _68
REMARK   29  A    between atoms: _67  and  _70
REMARK   30  A    between atoms: _70  and  _71
REMARK   31  A    between atoms: _76  and  _77
REMARK   32  A    between atoms: _79  and  _81
REMARK   33  A    between atoms: _81  and  _82
REMARK   34  A    between atoms: _81  and  _84
REMARK   35  A    between atoms: _84  and  _85
REMARK   36  A    between atoms: _85  and  _86
REMARK   37  A    between atoms: _86  and  _87
REMARK   38  A    between atoms: _87  and  _88
REMARK   39  A    between atoms: _92  and  _94
REMARK   40  A    between atoms: _94  and  _95
REMARK   41  A    between atoms: _98  and  _99
REMARK   42  A    between atoms: _104  and  _106
REMARK   43  A    between atoms: _106  and  _107
REMARK   44  A    between atoms: _106  and  _109
REMARK   45  A    between atoms: _112  and  _114
REMARK   46  A    between atoms: _114  and  _115
REMARK   47  A    between atoms: _118  and  _120
REMARK   48  A    between atoms: _120  and  _121
REMARK   49  A    between atoms: _120  and  _123
REMARK   50  A    between atoms: _123  and  _124
REMARK   51  A    between atoms: _127  and  _129
REMARK   52  A    between atoms: _129  and  _130
REMARK   53  A    between atoms: _129  and  _132
REMARK   54  A    between atoms: _132  and  _133
REMARK   55  A    between atoms: _133  and  _134
REMARK   56  A    between atoms: _134  and  _135
REMARK   57  A    between atoms: _135  and  _136
REMARK   58  A    between atoms: _140  and  _142
REMARK   59  A    between atoms: _142  and  _143
REMARK   60  A    between atoms: _142  and  _145
REMARK   61  A    between atoms: _145  and  _146
REMARK   62  A    between atoms: _146  and  _147
REMARK   63  A    between atoms: _150  and  _152
REMARK   64  A    between atoms: _152  and  _153
REMARK   65  A    between atoms: _152  and  _155
REMARK   66  A    between atoms: _155  and  _156
REMARK   67  A    between atoms: _159  and  _161
REMARK   68  A    between atoms: _161  and  _162
REMARK   69  A    between atoms: _161  and  _164
REMARK   70  A    between atoms: _164  and  _165
REMARK   71  A    between atoms: _165  and  _166
REMARK   72  A    between atoms: _169  and  _171
REMARK   73  A    between atoms: _171  and  _172
REMARK   74  A    between atoms: _175  and  _177
REMARK   75  A    between atoms: _177  and  _178
REMARK   76  A    between atoms: _177  and  _180
REMARK   77  A    between atoms: _183  and  _185
REMARK   78  A    between atoms: _185  and  _186
REMARK   79  A    between atoms: _185  and  _188
REMARK   80  A    between atoms: _188  and  _189
REMARK   81  A    between atoms: _189  and  _190
REMARK   82  A    between atoms: _192  and  _194
REMARK   83  A    between atoms: _194  and  _195
REMARK   84  A    between atoms: _198  and  _200
REMARK   85  A    between atoms: _200  and  _201
REMARK   86  A    between atoms: _200  and  _203
REMARK   87  A    between atoms: _206  and  _208
REMARK   88  A    between atoms: _208  and  _209
REMARK   89  A    between atoms: _208  and  _211
REMARK   90  A    between atoms: _214  and  _216
REMARK   91  A    between atoms: _216  and  _217
REMARK   92  A    between atoms: _216  and  _219
REMARK   93  A    between atoms: _221  and  _223
REMARK   94  A    between atoms: _223  and  _224
REMARK   95  A    between atoms: _223  and  _226
REMARK   96  A    between atoms: _226  and  _227
REMARK   97  A    between atoms: _227  and  _228
REMARK   98  A    between atoms: _228  and  _229
REMARK   99  A    between atoms: _238  and  _240
REMARK  100  A    between atoms: _240  and  _241
REMARK  101  A    between atoms: _240  and  _243
REMARK  102  A    between atoms: _243  and  _244
REMARK  103  A    between atoms: _247  and  _249
REMARK  104  A    between atoms: _249  and  _250
REMARK  105  A    between atoms: _249  and  _252
REMARK  106  A    between atoms: _252  and  _253
REMARK  107  A    between atoms: _256  and  _258
REMARK  108  A    between atoms: _258  and  _259
REMARK  109  A    between atoms: _261  and  _263
REMARK  110  A    between atoms: _263  and  _264
REMARK  111  A    between atoms: _263  and  _266
REMARK  112  A    between atoms: _266  and  _267
REMARK  113  A    between atoms: _267  and  _268
REMARK  114  A    between atoms: _273  and  _275
REMARK  115  A    between atoms: _275  and  _276
REMARK  116  A    between atoms: _275  and  _278
REMARK  117  A    between atoms: _278  and  _279
REMARK  118  A    between atoms: _282  and  _284
REMARK  119  A    between atoms: _284  and  _285
REMARK  120  A    between atoms: _284  and  _287
REMARK  121  A    between atoms: _287  and  _288
REMARK  122  A    between atoms: _291  and  _293
REMARK  123  A    between atoms: _293  and  _294
REMARK  124  A    between atoms: _293  and  _296
REMARK  125  A    between atoms: _296  and  _297
REMARK  126  A    between atoms: _300  and  _302
REMARK  127  A    between atoms: _302  and  _303
REMARK  128  A    between atoms: _302  and  _305
REMARK  129  A    between atoms: _305  and  _306
REMARK  130  A    between atoms: _306  and  _307
REMARK  131  A    between atoms: _312  and  _314
REMARK  132  A    between atoms: _314  and  _315
REMARK  133  A    between atoms: _314  and  _317
REMARK  134  A    between atoms: _317  and  _318
REMARK  135  A    between atoms: _321  and  _323
REMARK  136  A    between atoms: _323  and  _324
REMARK  137  A    between atoms: _323  and  _326
REMARK  138  A    between atoms: _326  and  _327
REMARK  139  A    between atoms: _327  and  _328
REMARK  140  A    between atoms: _331  and  _332
REMARK  141  A    between atoms: _337  and  _339
REMARK  142  A    between atoms: _339  and  _340
REMARK  143  A    between atoms: _339  and  _342
REMARK  144  A    between atoms: _342  and  _343
REMARK  145  A    between atoms: _349  and  _351
REMARK  146  A    between atoms: _351  and  _352
REMARK  147  A    between atoms: _354  and  _356
REMARK  148  A    between atoms: _356  and  _357
REMARK  149  A    between atoms: _356  and  _359
REMARK  150  A    between atoms: _361  and  _363
REMARK  151  A    between atoms: _363  and  _364
REMARK  152  A    between atoms: _363  and  _366
REMARK  153  A    between atoms: _366  and  _367
REMARK  154  A    between atoms: _370  and  _372
REMARK  155  A    between atoms: _372  and  _373
REMARK  156  A    between atoms: _372  and  _375
REMARK  157  A    between atoms: _375  and  _376
REMARK  158  A    between atoms: _379  and  _381
REMARK  159  A    between atoms: _381  and  _382
REMARK  160  A    between atoms: _381  and  _384
REMARK  161  A    between atoms: _384  and  _385
REMARK  162  A    between atoms: _388  and  _390
REMARK  163  A    between atoms: _390  and  _391
REMARK  164  A    between atoms: _390  and  _393
REMARK  165  A    between atoms: _393  and  _394
REMARK  166  A    between atoms: _399  and  _400
REMARK  167  A    between atoms: _402  and  _404
REMARK  168  A    between atoms: _404  and  _405
REMARK  169  A    between atoms: _404  and  _407
REMARK  170  A    between atoms: _407  and  _408
REMARK  171  A    between atoms: _408  and  _409
REMARK  172  A    between atoms: _409  and  _410
REMARK  173  A    between atoms: _419  and  _421
REMARK  174  A    between atoms: _421  and  _422
REMARK  175  A    between atoms: _421  and  _424
REMARK  176  A    between atoms: _424  and  _425
REMARK  177  A    between atoms: _428  and  _430
REMARK  178  A    between atoms: _430  and  _431
REMARK  179  A    between atoms: _430  and  _433
REMARK  180  A    between atoms: _433  and  _434
REMARK  181  A    between atoms: _439  and  _441
REMARK  182  A    between atoms: _441  and  _442
REMARK  183  A    between atoms: _445  and  _447
REMARK  184  A    between atoms: _447  and  _448
REMARK  185  A    between atoms: _447  and  _450
REMARK  186  A    between atoms: _450  and  _451
REMARK  187  A    between atoms: _451  and  _452
REMARK  188  A    between atoms: _452  and  _453
REMARK  189  A    between atoms: _462  and  _464
REMARK  190  A    between atoms: _464  and  _465
REMARK  191  A    between atoms: _464  and  _467
REMARK  192  A    between atoms: _467  and  _468
REMARK  193  A    between atoms: _473  and  _475
REMARK  194  A    between atoms: _475  and  _476
REMARK  195  A    between atoms: _475  and  _478
REMARK  196  A    between atoms: _481  and  _483
REMARK  197  A    between atoms: _483  and  _484
REMARK  198  A    between atoms: _483  and  _486
REMARK  199  A    between atoms: _486  and  _487
REMARK  200  A    between atoms: _490  and  _492
REMARK  201  A    between atoms: _492  and  _493
REMARK  202  A    between atoms: _492  and  _495
REMARK  203  A    between atoms: _498  and  _500
REMARK  204  A    between atoms: _500  and  _501
REMARK  205  A    between atoms: _500  and  _503
REMARK  206  A    between atoms: _503  and  _504
REMARK  207  A    between atoms: _504  and  _505
REMARK  208  A    between atoms: _505  and  _506
REMARK  209  A    between atoms: _506  and  _507
REMARK  210  A    between atoms: _511  and  _513
REMARK  211  A    between atoms: _513  and  _514
REMARK  212  A    between atoms: _513  and  _516
REMARK  213  A    between atoms: _516  and  _517
REMARK  214  A    between atoms: _520  and  _522
REMARK  215  A    between atoms: _522  and  _523
REMARK  216  A    between atoms: _522  and  _525
REMARK  217  A    between atoms: _525  and  _526
REMARK  218  A    between atoms: _529  and  _531
REMARK  219  A    between atoms: _531  and  _532
REMARK  220  A    between atoms: _531  and  _534
REMARK  221  A    between atoms: _534  and  _535
REMARK  222  A    between atoms: _538  and  _540
REMARK  223  A    between atoms: _540  and  _541
REMARK  224  A    between atoms: _540  and  _543
REMARK  225  A    between atoms: _543  and  _544
REMARK  226  A    between atoms: _550  and  _552
REMARK  227  A    between atoms: _552  and  _553
REMARK  228  A    between atoms: _555  and  _557
REMARK  229  A    between atoms: _557  and  _558
REMARK  230  A    between atoms: _557  and  _560
REMARK  231  A    between atoms: _560  and  _561
REMARK  232  A    between atoms: _564  and  _566
REMARK  233  A    between atoms: _566  and  _567
REMARK  234  A    between atoms: _570  and  _572
REMARK  235  A    between atoms: _572  and  _573
REMARK  236  A    between atoms: _572  and  _575
REMARK  237  A    between atoms: _575  and  _576
REMARK  238  A    between atoms: _586  and  _588
REMARK  239  A    between atoms: _588  and  _589
REMARK  240  A    between atoms: _588  and  _591
REMARK  241  A    between atoms: _591  and  _592
REMARK  242  A    between atoms: _592  and  _593
REMARK  243  A    between atoms: _596  and  _598
REMARK  244  A    between atoms: _598  and  _599
REMARK  245  A    between atoms: _601  and  _603
REMARK  246  A    between atoms: _603  and  _604
REMARK  247  A    between atoms: _603  and  _606
REMARK  248  A    between atoms: _606  and  _607
REMARK  249  A    between atoms: _610  and  _612
REMARK  250  A    between atoms: _612  and  _613
REMARK  251  A    between atoms: _612  and  _615
REMARK  252  A    between atoms: _615  and  _616
REMARK  253  A    between atoms: _616  and  _617
REMARK                            x       y       z     vdW  Elec       q    Type
REMARK                         _______ _______ _______ _____ _____    ______ ____
ROOT
ATOM      1  CA  TYR A   3      16.058  25.505  39.986  0.00  0.00    +0.153 C 
ENDROOT
BRANCH   1   2
ATOM      2  C   TYR A   3      14.688  26.053  39.580  0.00  0.00    +0.241 C 
ATOM      3  O   TYR A   3      14.236  27.073  40.101  0.00  0.00    -0.273 OA
ATOM      4  N   LYS A   4      14.019  25.371  38.661  0.00  0.00    -0.297 N 
ATOM      5  H   LYS A   4      14.450  24.536  38.215  0.00  0.00    +0.150 HD
BRANCH   4   6
ATOM      6  CA  LYS A   4      12.684  25.792  38.279  0.00  0.00    +0.149 C 
BRANCH   6   7
ATOM      7  C   LYS A   4      11.804  24.685  38.839  0.00  0.00    +0.241 C 
ATOM      8  N   GLY A   5      10.634  25.042  39.341  0.00  0.00    -0.296 N 
ATOM      9  H   GLY A   5      10.340  26.040  39.341  0.00  0.00    +0.150 HD
ATOM     10  O   LYS A   4      12.192  23.518  38.836  0.00  0.00    -0.273 OA
BRANCH   8  11
ATOM     11  CA  GLY A   5       9.772  24.021  39.889  0.00  0.00    +0.163 C 
BRANCH  11  12
ATOM     12  C   GLY A   5       8.359  24.491  40.120  0.00  0.00    +0.229 C 
ATOM     13  O   GLY A   5       7.905  25.482  39.547  0.00  0.00    -0.286 OA
ENDBRANCH  11  12
ENDBRANCH   8  11
ENDBRANCH   6   7
BRANCH   6  14
ATOM     14  CB  LYS A   4      12.525  25.880  36.758  0.00  0.00    +0.029 C 
BRANCH  14  15
ATOM     15  CG  LYS A   4      12.411  24.499  36.168  0.00  0.00    +0.000 C 
BRANCH  15  16
ATOM     16  CD  LYS A   4      11.830  24.593  34.774  0.00  0.00    -0.024 C 
BRANCH  16  17
ATOM     17  CE  LYS A   4      11.291  23.223  34.379  0.00  0.00    -0.086 C 
BRANCH  17  18
ATOM     18  NZ  LYS A   4      10.741  23.282  33.000  0.00  0.00    +0.380 N 
ATOM     19  HZ1 LYS A   4       9.971  23.980  32.965  0.00  0.00    -0.089 HD
ATOM     20  HZ2 LYS A   4      10.374  22.346  32.734  0.00  0.00    -0.089 HD
ATOM     21  HZ3 LYS A   4      11.494  23.561  32.339  0.00  0.00    -0.089 HD
ENDBRANCH  17  18
ENDBRANCH  16  17
ENDBRANCH  15  16
ENDBRANCH  14  15
ENDBRANCH   6  14
ENDBRANCH   4   6
ENDBRANCH   1   2
BRANCH   1  23
ATOM     22  C   VAL A   2      18.009  27.010  40.018  0.00  0.00    +0.241 C 
ATOM     23  N   TYR A   3      16.851  26.598  40.528  0.00  0.00    -0.297 N 
ATOM     24  H   TYR A   3      16.489  27.090  41.370  0.00  0.00    +0.150 HD
ATOM     25  O   VAL A   2      18.523  26.532  39.012  0.00  0.00    -0.273 OA
BRANCH  22  26
ATOM     26  CA  VAL A   2      18.675  28.157  40.764  0.00  0.00    +0.148 C 
BRANCH  26  29
ATOM     27  C   THR A   1      20.605  27.559  42.135  0.00  0.00    +0.241 C 
ATOM     28  O   THR A   1      19.929  27.466  43.158  0.00  0.00    -0.274 OA
ATOM     29  N   VAL A   2      20.094  27.892  40.950  0.00  0.00    -0.297 N 
ATOM     30  H   VAL A   2      20.731  27.965  40.131  0.00  0.00    +0.150 HD
BRANCH  27  31
ATOM     31  CA  THR A   1      22.111  27.296  42.172  0.00  0.00    +0.172 C 
BRANCH  31  32
ATOM     32  CB  THR A   1      22.348  25.774  42.214  0.00  0.00    +0.135 C 
ATOM     33  CG2 THR A   1      21.722  25.100  41.012  0.00  0.00    +0.034 C 
BRANCH  32  34
ATOM     34  OG1 THR A   1      23.758  25.514  42.224  0.00  0.00    -0.383 OA
ATOM     35  HG1 THR A   1      23.912  24.536  42.251  0.00  0.00    +0.210 HD
ENDBRANCH  32  34
ENDBRANCH  31  32
BRANCH  31  36
ATOM     36  N   THR A   1      22.726  27.940  43.324  0.00  0.00    -0.236 NA
ATOM     37  H   THR A   1      22.714  27.443  44.238  0.00  0.00    +0.142 HD
ENDBRANCH  31  36
ENDBRANCH  27  31
ENDBRANCH  26  29
BRANCH  26  38
ATOM     38  CB  VAL A   2      18.426  29.447  39.964  0.00  0.00    +0.027 C 
ATOM     39  CG2 VAL A   2      19.237  30.582  40.544  0.00  0.00    +0.002 C 
ATOM     40  CG1 VAL A   2      16.942  29.781  39.989  0.00  0.00    +0.002 C 
ENDBRANCH  26  38
ENDBRANCH  22  26
ENDBRANCH   1  23
BRANCH   1  41
ATOM     41  CB  TYR A   3      15.803  24.447  41.073  0.00  0.00    +0.055 C 
BRANCH  41  42
ATOM     42  CG  TYR A   3      17.069  23.805  41.588  0.00  0.00    -0.020 A 
ATOM     43  CD2 TYR A   3      17.744  24.329  42.689  0.00  0.00    -0.001 A 
ATOM     44  CE2 TYR A   3      18.873  23.699  43.205  0.00  0.00    +0.036 A 
ATOM     45  CZ  TYR A   3      19.337  22.528  42.609  0.00  0.00    +0.134 A 
ATOM     46  CE1 TYR A   3      18.681  21.999  41.515  0.00  0.00    +0.036 A 
ATOM     47  CD1 TYR A   3      17.560  22.638  41.012  0.00  0.00    -0.001 A 
BRANCH  45  48
ATOM     48  OH  TYR A   3      20.463  21.887  43.095  0.00  0.00    -0.506 OA
ATOM     49  HH  TYR A   3      20.642  21.079  42.552  0.00  0.00    +0.292 HD
ENDBRANCH  45  48
ENDBRANCH  41  42
ENDBRANCH   1  41
TORSDOF 21
REMARK  Name = ../refined-set-2016/1xkk/1xkk_pocket.pdb
REMARK  253 active torsions:
REMARK  status: ('A' for Active; 'I' for Inactive)
REMARK    1  A    between atoms: _1  and  _3
REMARK    2  A    between atoms: _3  and  _4
REMARK    3  A    between atoms: _3  and  _6
REMARK    4  A    between atoms: _9  and  _11
REMARK    5  A    between atoms: _11  and  _12
REMARK    6  A    between atoms: _11  and  _14
REMARK    7  A    between atoms: _14  and  _15
REMARK    8  A    between atoms: _18  and  _20
REMARK    9  A    between atoms: _20  and  _21
REMARK   10  A    between atoms: _23  and  _25
REMARK   11  A    between atoms: _25  and  _26
REMARK   12  A    between atoms: _25  and  _28
REMARK   13  A    between atoms: _28  and  _29
REMARK   14  A    between atoms: _31  and  _33
REMARK   15  A    between atoms: _33  and  _34
REMARK   16  A    between atoms: _36  and  _38
REMARK   17  A    between atoms: _38  and  _39
REMARK   18  A    between atoms: _38  and  _41
REMARK   19  A    between atoms: _41  and  _42
REMARK   20  A    between atoms: _48  and  _50
REMARK   21  A    between atoms: _50  and  _51
REMARK   22  A    between atoms: _50  and  _53
REMARK   23  A    between atoms: _53  and  _54
REMARK   24  A    between atoms: _57  and  _59
REMARK   25  A    between atoms: _59  and  _60
REMARK   26  A    between atoms: _59  and  _62
REMARK   27  A    between atoms: _65  and  _67
REMARK   28  A    between atoms: _67  and  _68
REMARK   29  A    between atoms: _67  and  _70
REMARK   30  A    between atoms: _70  and  _71
REMARK   31  A    between atoms: _76  and  _77
REMARK   32  A    between atoms: _79  and  _81
REMARK   33  A    between atoms: _81  and  _82
REMARK   34  A    between atoms: _81  and  _84
REMARK   35  A    between atoms: _84  and  _85
REMARK   36  A    between atoms: _85  and  _86
REMARK   37  A    between atoms: _86  and  _87
REMARK   38  A    between atoms: _87  and  _88
REMARK   39  A    between atoms: _92  and  _94
REMARK   40  A    between atoms: _94  and  _95
REMARK   41  A    between atoms: _98  and  _99
REMARK   42  A    between atoms: _104  and  _106
REMARK   43  A    between atoms: _106  and  _107
REMARK   44  A    between atoms: _106  and  _109
REMARK   45  A    between atoms: _112  and  _114
REMARK   46  A    between atoms: _114  and  _115
REMARK   47  A    between atoms: _118  and  _120
REMARK   48  A    between atoms: _120  and  _121
REMARK   49  A    between atoms: _120  and  _123
REMARK   50  A    between atoms: _123  and  _124
REMARK   51  A    between atoms: _127  and  _129
REMARK   52  A    between atoms: _129  and  _130
REMARK   53  A    between atoms: _129  and  _132
REMARK   54  A    between atoms: _132  and  _133
REMARK   55  A    between atoms: _133  and  _134
REMARK   56  A    between atoms: _134  and  _135
REMARK   57  A    between atoms: _135  and  _136
REMARK   58  A    between atoms: _140  and  _142
REMARK   59  A    between atoms: _142  and  _143
REMARK   60  A    between atoms: _142  and  _145
REMARK   61  A    between atoms: _145  and  _146
REMARK   62  A    between atoms: _146  and  _147
REMARK   63  A    between atoms: _150  and  _152
REMARK   64  A    between atoms: _152  and  _153
REMARK   65  A    between atoms: _152  and  _155
REMARK   66  A    between atoms: _155  and  _156
REMARK   67  A    between atoms: _159  and  _161
REMARK   68  A    between atoms: _161  and  _162
REMARK   69  A    between atoms: _161  and  _164
REMARK   70  A    between atoms: _164  and  _165
REMARK   71  A    between atoms: _165  and  _166
REMARK   72  A    between atoms: _169  and  _171
REMARK   73  A    between atoms: _171  and  _172
REMARK   74  A    between atoms: _175  and  _177
REMARK   75  A    between atoms: _177  and  _178
REMARK   76  A    between atoms: _177  and  _180
REMARK   77  A    between atoms: _183  and  _185
REMARK   78  A    between atoms: _185  and  _186
REMARK   79  A    between atoms: _185  and  _188
REMARK   80  A    between atoms: _188  and  _189
REMARK   81  A    between atoms: _189  and  _190
REMARK   82  A    between atoms: _192  and  _194
REMARK   83  A    between atoms: _194  and  _195
REMARK   84  A    between atoms: _198  and  _200
REMARK   85  A    between atoms: _200  and  _201
REMARK   86  A    between atoms: _200  and  _203
REMARK   87  A    between atoms: _206  and  _208
REMARK   88  A    between atoms: _208  and  _209
REMARK   89  A    between atoms: _208  and  _211
REMARK   90  A    between atoms: _214  and  _216
REMARK   91  A    between atoms: _216  and  _217
REMARK   92  A    between atoms: _216  and  _219
REMARK   93  A    between atoms: _221  and  _223
REMARK   94  A    between atoms: _223  and  _224
REMARK   95  A    between atoms: _223  and  _226
REMARK   96  A    between atoms: _226  and  _227
REMARK   97  A    between atoms: _227  and  _228
REMARK   98  A    between atoms: _228  and  _229
REMARK   99  A    between atoms: _238  and  _240
REMARK  100  A    between atoms: _240  and  _241
REMARK  101  A    between atoms: _240  and  _243
REMARK  102  A    between atoms: _243  and  _244
REMARK  103  A    between atoms: _247  and  _249
REMARK  104  A    between atoms: _249  and  _250
REMARK  105  A    between atoms: _249  and  _252
REMARK  106  A    between atoms: _252  and  _253
REMARK  107  A    between atoms: _256  and  _258
REMARK  108  A    between atoms: _258  and  _259
REMARK  109  A    between atoms: _261  and  _263
REMARK  110  A    between atoms: _263  and  _264
REMARK  111  A    between atoms: _263  and  _266
REMARK  112  A    between atoms: _266  and  _267
REMARK  113  A    between atoms: _267  and  _268
REMARK  114  A    between atoms: _273  and  _275
REMARK  115  A    between atoms: _275  and  _276
REMARK  116  A    between atoms: _275  and  _278
REMARK  117  A    between atoms: _278  and  _279
REMARK  118  A    between atoms: _282  and  _284
REMARK  119  A    between atoms: _284  and  _285
REMARK  120  A    between atoms: _284  and  _287
REMARK  121  A    between atoms: _287  and  _288
REMARK  122  A    between atoms: _291  and  _293
REMARK  123  A    between atoms: _293  and  _294
REMARK  124  A    between atoms: _293  and  _296
REMARK  125  A    between atoms: _296  and  _297
REMARK  126  A    between atoms: _300  and  _302
REMARK  127  A    between atoms: _302  and  _303
REMARK  128  A    between atoms: _302  and  _305
REMARK  129  A    between atoms: _305  and  _306
REMARK  130  A    between atoms: _306  and  _307
REMARK  131  A    between atoms: _312  and  _314
REMARK  132  A    between atoms: _314  and  _315
REMARK  133  A    between atoms: _314  and  _317
REMARK  134  A    between atoms: _317  and  _318
REMARK  135  A    between atoms: _321  and  _323
REMARK  136  A    between atoms: _323  and  _324
REMARK  137  A    between atoms: _323  and  _326
REMARK  138  A    between atoms: _326  and  _327
REMARK  139  A    between atoms: _327  and  _328
REMARK  140  A    between atoms: _331  and  _332
REMARK  141  A    between atoms: _337  and  _339
REMARK  142  A    between atoms: _339  and  _340
REMARK  143  A    between atoms: _339  and  _342
REMARK  144  A    between atoms: _342  and  _343
REMARK  145  A    between atoms: _349  and  _351
REMARK  146  A    between atoms: _351  and  _352
REMARK  147  A    between atoms: _354  and  _356
REMARK  148  A    between atoms: _356  and  _357
REMARK  149  A    between atoms: _356  and  _359
REMARK  150  A    between atoms: _361  and  _363
REMARK  151  A    between atoms: _363  and  _364
REMARK  152  A    between atoms: _363  and  _366
REMARK  153  A    between atoms: _366  and  _367
REMARK  154  A    between atoms: _370  and  _372
REMARK  155  A    between atoms: _372  and  _373
REMARK  156  A    between atoms: _372  and  _375
REMARK  157  A    between atoms: _375  and  _376
REMARK  158  A    between atoms: _379  and  _381
REMARK  159  A    between atoms: _381  and  _382
REMARK  160  A    between atoms: _381  and  _384
REMARK  161  A    between atoms: _384  and  _385
REMARK  162  A    between atoms: _388  and  _390
REMARK  163  A    between atoms: _390  and  _391
REMARK  164  A    between atoms: _390  and  _393
REMARK  165  A    between atoms: _393  and  _394
REMARK  166  A    between atoms: _399  and  _400
REMARK  167  A    between atoms: _402  and  _404
REMARK  168  A    between atoms: _404  and  _405
REMARK  169  A    between atoms: _404  and  _407
REMARK  170  A    between atoms: _407  and  _408
REMARK  171  A    between atoms: _408  and  _409
REMARK  172  A    between atoms: _409  and  _410
REMARK  173  A    between atoms: _419  and  _421
REMARK  174  A    between atoms: _421  and  _422
REMARK  175  A    between atoms: _421  and  _424
REMARK  176  A    between atoms: _424  and  _425
REMARK  177  A    between atoms: _428  and  _430
REMARK  178  A    between atoms: _430  and  _431
REMARK  179  A    between atoms: _430  and  _433
REMARK  180  A    between atoms: _433  and  _434
REMARK  181  A    between atoms: _439  and  _441
REMARK  182  A    between atoms: _441  and  _442
REMARK  183  A    between atoms: _445  and  _447
REMARK  184  A    between atoms: _447  and  _448
REMARK  185  A    between atoms: _447  and  _450
REMARK  186  A    between atoms: _450  and  _451
REMARK  187  A    between atoms: _451  and  _452
REMARK  188  A    between atoms: _452  and  _453
REMARK  189  A    between atoms: _462  and  _464
REMARK  190  A    between atoms: _464  and  _465
REMARK  191  A    between atoms: _464  and  _467
REMARK  192  A    between atoms: _467  and  _468
REMARK  193  A    between atoms: _473  and  _475
REMARK  194  A    between atoms: _475  and  _476
REMARK  195  A    between atoms: _475  and  _478
REMARK  196  A    between atoms: _481  and  _483
REMARK  197  A    between atoms: _483  and  _484
REMARK  198  A    between atoms: _483  and  _486
REMARK  199  A    between atoms: _486  and  _487
REMARK  200  A    between atoms: _490  and  _492
REMARK  201  A    between atoms: _492  and  _493
REMARK  202  A    between atoms: _492  and  _495
REMARK  203  A    between atoms: _498  and  _500
REMARK  204  A    between atoms: _500  and  _501
REMARK  205  A    between atoms: _500  and  _503
REMARK  206  A    between atoms: _503  and  _504
REMARK  207  A    between atoms: _504  and  _505
REMARK  208  A    between atoms: _505  and  _506
REMARK  209  A    between atoms: _506  and  _507
REMARK  210  A    between atoms: _511  and  _513
REMARK  211  A    between atoms: _513  and  _514
REMARK  212  A    between atoms: _513  and  _516
REMARK  213  A    between atoms: _516  and  _517
REMARK  214  A    between atoms: _520  and  _522
REMARK  215  A    between atoms: _522  and  _523
REMARK  216  A    between atoms: _522  and  _525
REMARK  217  A    between atoms: _525  and  _526
REMARK  218  A    between atoms: _529  and  _531
REMARK  219  A    between atoms: _531  and  _532
REMARK  220  A    between atoms: _531  and  _534
REMARK  221  A    between atoms: _534  and  _535
REMARK  222  A    between atoms: _538  and  _540
REMARK  223  A    between atoms: _540  and  _541
REMARK  224  A    between atoms: _540  and  _543
REMARK  225  A    between atoms: _543  and  _544
REMARK  226  A    between atoms: _550  and  _552
REMARK  227  A    between atoms: _552  and  _553
REMARK  228  A    between atoms: _555  and  _557
REMARK  229  A    between atoms: _557  and  _558
REMARK  230  A    between atoms: _557  and  _560
REMARK  231  A    between atoms: _560  and  _561
REMARK  232  A    between atoms: _564  and  _566
REMARK  233  A    between atoms: _566  and  _567
REMARK  234  A    between atoms: _570  and  _572
REMARK  235  A    between atoms: _572  and  _573
REMARK  236  A    between atoms: _572  and  _575
REMARK  237  A    between atoms: _575  and  _576
REMARK  238  A    between atoms: _586  and  _588
REMARK  239  A    between atoms: _588  and  _589
REMARK  240  A    between atoms: _588  and  _591
REMARK  241  A    between atoms: _591  and  _592
REMARK  242  A    between atoms: _592  and  _593
REMARK  243  A    between atoms: _596  and  _598
REMARK  244  A    between atoms: _598  and  _599
REMARK  245  A    between atoms: _601  and  _603
REMARK  246  A    between atoms: _603  and  _604
REMARK  247  A    between atoms: _603  and  _606
REMARK  248  A    between atoms: _606  and  _607
REMARK  249  A    between atoms: _610  and  _612
REMARK  250  A    between atoms: _612  and  _613
REMARK  251  A    between atoms: _612  and  _615
REMARK  252  A    between atoms: _615  and  _616
REMARK  253  A    between atoms: _616  and  _617
REMARK                            x       y       z     vdW  Elec       q    Type
REMARK                         _______ _______ _______ _____ _____    ______ ____
ROOT
ATOM      1  C   ILE A   4      15.539  28.256  43.667  0.00  0.00    +0.241 C 
ATOM      2  N   LYS A   5      16.003  29.136  44.541  0.00  0.00    -0.297 N 
ATOM      3  H   LYS A   5      15.341  29.668  45.141  0.00  0.00    +0.150 HD
ATOM      4  O   ILE A   4      16.282  27.596  42.931  0.00  0.00    -0.273 OA
ENDROOT
BRANCH   2   5
ATOM      5  CA  LYS A   5      17.427  29.361  44.666  0.00  0.00    +0.149 C 
BRANCH   5   6
ATOM      6  C   LYS A   5      17.957  28.770  45.958  0.00  0.00    +0.241 C 
ATOM      7  O   LYS A   5      17.530  29.153  47.051  0.00  0.00    -0.273 OA
ATOM      8  N   GLU A   6      18.877  27.820  45.830  0.00  0.00    -0.297 N 
ATOM      9  H   GLU A   6      19.172  27.515  44.881  0.00  0.00    +0.150 HD
BRANCH   8  10
ATOM     10  CA  GLU A   6      19.477  27.202  47.002  0.00  0.00    +0.149 C 
BRANCH  10  11
ATOM     11  C   GLU A   6      20.878  27.795  47.139  0.00  0.00    +0.241 C 
ATOM     12  N   LEU A   7      21.119  28.502  48.238  0.00  0.00    -0.298 N 
ATOM     13  H   LEU A   7      20.370  28.606  48.952  0.00  0.00    +0.150 HD
ATOM     14  O   GLU A   6      21.715  27.638  46.251  0.00  0.00    -0.273 OA
BRANCH  12  15
ATOM     15  CA  LEU A   7      22.414  29.135  48.463  0.00  0.00    +0.137 C 
BRANCH  15  16
ATOM     16  C   LEU A   7      23.561  28.142  48.614  0.00  0.00    +0.227 C 
ATOM     17  O   LEU A   7      23.378  27.037  49.121  0.00  0.00    -0.286 OA
ENDBRANCH  15  16
BRANCH  15  18
ATOM     18  CB  LEU A   7      22.351  30.049  49.686  0.00  0.00    +0.028 C 
BRANCH  18  19
ATOM     19  CG  LEU A   7      21.373  31.201  49.416  0.00  0.00    +0.002 C 
ATOM     20  CD2 LEU A   7      21.414  32.165  50.582  0.00  0.00    +0.000 C 
ATOM     21  CD1 LEU A   7      21.736  31.938  48.133  0.00  0.00    +0.000 C 
ENDBRANCH  18  19
ENDBRANCH  15  18
ENDBRANCH  12  15
ENDBRANCH  10  11
BRANCH  10  22
ATOM     22  CB  GLU A   6      19.539  25.682  46.831  0.00  0.00    +0.041 C 
BRANCH  22  23
ATOM     23  CG  GLU A   6      19.588  25.041  48.212  0.00  0.00    +0.116 C 
BRANCH  23  24
ATOM     24  CD  GLU A   6      19.493  23.531  48.102  0.00  0.00    +0.365 C 
ATOM     25  OE2 GLU A   6      19.184  22.884  49.126  0.00  0.00    -0.246 OA
ATOM     26  OE1 GLU A   6      19.731  22.984  47.006  0.00  0.00    -0.246 OA
ENDBRANCH  23  24
ENDBRANCH  22  23
ENDBRANCH  10  22
ENDBRANCH   8  10
ENDBRANCH   5   6
BRANCH   5  27
ATOM     27  CB  LYS A   5      17.725  30.853  44.623  0.00  0.00    +0.029 C 
BRANCH  27  28
ATOM     28  CG  LYS A   5      19.216  31.063  44.495  0.00  0.00    +0.000 C 
BRANCH  28  29
ATOM     29  CD  LYS A   5      19.444  32.442  43.941  0.00  0.00    -0.024 C 
BRANCH  29  30
ATOM     30  CE  LYS A   5      20.888  32.589  43.540  0.00  0.00    -0.086 C 
BRANCH  30  31
ATOM     31  NZ  LYS A   5      21.006  33.729  42.597  0.00  0.00    +0.380 N 
ATOM     32  HZ1 LYS A   5      20.678  34.599  43.064  0.00  0.00    -0.089 HD
ATOM     33  HZ2 LYS A   5      22.000  33.841  42.313  0.00  0.00    -0.089 HD
ATOM     34  HZ3 LYS A   5      20.422  33.544  41.756  0.00  0.00    -0.089 HD
ENDBRANCH  30  31
ENDBRANCH  29  30
ENDBRANCH  28  29
ENDBRANCH  27  28
ENDBRANCH   5  27
ENDBRANCH   2   5
BRANCH   1  35
ATOM     35  CA  ILE A   4      14.020  28.097  43.614  0.00  0.00    +0.149 C 
BRANCH  35  38
ATOM     36  C   ALA A   3      12.643  29.381  42.064  0.00  0.00    +0.241 C 
ATOM     37  O   ALA A   3      12.170  30.099  42.954  0.00  0.00    -0.273 OA
ATOM     38  N   ILE A   4      13.526  28.419  42.289  0.00  0.00    -0.297 N 
ATOM     39  H   ILE A   4      13.881  27.871  41.480  0.00  0.00    +0.150 HD
BRANCH  36  40
ATOM     40  CA  ALA A   3      12.208  29.544  40.619  0.00  0.00    +0.149 C 
ATOM     41  CB  ALA A   3      12.830  30.784  40.004  0.00  0.00    +0.031 C 
BRANCH  40  43
ATOM     42  C   VAL A   2       9.923  28.744  40.374  0.00  0.00    +0.241 C 
ATOM     43  N   ALA A   3      10.771  29.694  40.752  0.00  0.00    -0.297 N 
ATOM     44  H   ALA A   3      10.392  30.574  41.157  0.00  0.00    +0.150 HD
ATOM     45  O   VAL A   2      10.277  27.692  39.824  0.00  0.00    -0.273 OA
BRANCH  42  46
ATOM     46  CA  VAL A   2       8.458  29.054  40.663  0.00  0.00    +0.148 C 
BRANCH  46  48
ATOM     47  C   PRO A   1       6.430  28.705  39.383  0.00  0.00    +0.239 C 
ATOM     48  N   VAL A   2       7.520  28.208  39.953  0.00  0.00    -0.297 N 
ATOM     49  H   VAL A   2       7.706  27.187  39.889  0.00  0.00    +0.150 HD
ATOM     50  O   PRO A   1       6.160  29.903  39.393  0.00  0.00    -0.274 OA
BRANCH  47  52
ATOM     51  N   PRO A   1       4.168  27.739  39.287  0.00  0.00    -0.210 NA
ATOM     52  CA  PRO A   1       5.510  27.689  38.704  0.00  0.00    +0.149 C 
ATOM     53  CB  PRO A   1       5.247  27.998  37.240  0.00  0.00    +0.028 C 
ATOM     54  CG  PRO A   1       4.019  28.771  37.201  0.00  0.00    +0.021 C 
ATOM     55  CD  PRO A   1       3.172  28.104  38.266  0.00  0.00    +0.089 C 
ENDBRANCH  47  52
ENDBRANCH  46  48
BRANCH  46  56
ATOM     56  CB  VAL A   2       8.252  28.910  42.177  0.00  0.00    +0.027 C 
ATOM     57  CG2 VAL A   2       8.531  27.476  42.591  0.00  0.00    +0.002 C 
ATOM     58  CG1 VAL A   2       6.830  29.293  42.551  0.00  0.00    +0.002 C 
ENDBRANCH  46  56
ENDBRANCH  42  46
ENDBRANCH  40  43
ENDBRANCH  36  40
ENDBRANCH  35  38
BRANCH  35  59
ATOM     59  CB  ILE A   4      13.632  26.644  43.954  0.00  0.00    +0.027 C 
ATOM     60  CG2 ILE A   4      14.225  26.225  45.290  0.00  0.00    +0.002 C 
BRANCH  59  61
ATOM     61  CG1 ILE A   4      12.107  26.523  43.962  0.00  0.00    +0.002 C 
ATOM     62  CD1 ILE A   4      11.712  25.074  43.809  0.00  0.00    +0.000 C 
ENDBRANCH  59  61
ENDBRANCH  35  59
ENDBRANCH   1  35
TORSDOF 26
REMARK  Name = ../refined-set-2016/1xkk/1xkk_pocket.pdb
REMARK  253 active torsions:
REMARK  status: ('A' for Active; 'I' for Inactive)
REMARK    1  A    between atoms: _1  and  _3
REMARK    2  A    between atoms: _3  and  _4
REMARK    3  A    between atoms: _3  and  _6
REMARK    4  A    between atoms: _9  and  _11
REMARK    5  A    between atoms: _11  and  _12
REMARK    6  A    between atoms: _11  and  _14
REMARK    7  A    between atoms: _14  and  _15
REMARK    8  A    between atoms: _18  and  _20
REMARK    9  A    between atoms: _20  and  _21
REMARK   10  A    between atoms: _23  and  _25
REMARK   11  A    between atoms: _25  and  _26
REMARK   12  A    between atoms: _25  and  _28
REMARK   13  A    between atoms: _28  and  _29
REMARK   14  A    between atoms: _31  and  _33
REMARK   15  A    between atoms: _33  and  _34
REMARK   16  A    between atoms: _36  and  _38
REMARK   17  A    between atoms: _38  and  _39
REMARK   18  A    between atoms: _38  and  _41
REMARK   19  A    between atoms: _41  and  _42
REMARK   20  A    between atoms: _48  and  _50
REMARK   21  A    between atoms: _50  and  _51
REMARK   22  A    between atoms: _50  and  _53
REMARK   23  A    between atoms: _53  and  _54
REMARK   24  A    between atoms: _57  and  _59
REMARK   25  A    between atoms: _59  and  _60
REMARK   26  A    between atoms: _59  and  _62
REMARK   27  A    between atoms: _65  and  _67
REMARK   28  A    between atoms: _67  and  _68
REMARK   29  A    between atoms: _67  and  _70
REMARK   30  A    between atoms: _70  and  _71
REMARK   31  A    between atoms: _76  and  _77
REMARK   32  A    between atoms: _79  and  _81
REMARK   33  A    between atoms: _81  and  _82
REMARK   34  A    between atoms: _81  and  _84
REMARK   35  A    between atoms: _84  and  _85
REMARK   36  A    between atoms: _85  and  _86
REMARK   37  A    between atoms: _86  and  _87
REMARK   38  A    between atoms: _87  and  _88
REMARK   39  A    between atoms: _92  and  _94
REMARK   40  A    between atoms: _94  and  _95
REMARK   41  A    between atoms: _98  and  _99
REMARK   42  A    between atoms: _104  and  _106
REMARK   43  A    between atoms: _106  and  _107
REMARK   44  A    between atoms: _106  and  _109
REMARK   45  A    between atoms: _112  and  _114
REMARK   46  A    between atoms: _114  and  _115
REMARK   47  A    between atoms: _118  and  _120
REMARK   48  A    between atoms: _120  and  _121
REMARK   49  A    between atoms: _120  and  _123
REMARK   50  A    between atoms: _123  and  _124
REMARK   51  A    between atoms: _127  and  _129
REMARK   52  A    between atoms: _129  and  _130
REMARK   53  A    between atoms: _129  and  _132
REMARK   54  A    between atoms: _132  and  _133
REMARK   55  A    between atoms: _133  and  _134
REMARK   56  A    between atoms: _134  and  _135
REMARK   57  A    between atoms: _135  and  _136
REMARK   58  A    between atoms: _140  and  _142
REMARK   59  A    between atoms: _142  and  _143
REMARK   60  A    between atoms: _142  and  _145
REMARK   61  A    between atoms: _145  and  _146
REMARK   62  A    between atoms: _146  and  _147
REMARK   63  A    between atoms: _150  and  _152
REMARK   64  A    between atoms: _152  and  _153
REMARK   65  A    between atoms: _152  and  _155
REMARK   66  A    between atoms: _155  and  _156
REMARK   67  A    between atoms: _159  and  _161
REMARK   68  A    between atoms: _161  and  _162
REMARK   69  A    between atoms: _161  and  _164
REMARK   70  A    between atoms: _164  and  _165
REMARK   71  A    between atoms: _165  and  _166
REMARK   72  A    between atoms: _169  and  _171
REMARK   73  A    between atoms: _171  and  _172
REMARK   74  A    between atoms: _175  and  _177
REMARK   75  A    between atoms: _177  and  _178
REMARK   76  A    between atoms: _177  and  _180
REMARK   77  A    between atoms: _183  and  _185
REMARK   78  A    between atoms: _185  and  _186
REMARK   79  A    between atoms: _185  and  _188
REMARK   80  A    between atoms: _188  and  _189
REMARK   81  A    between atoms: _189  and  _190
REMARK   82  A    between atoms: _192  and  _194
REMARK   83  A    between atoms: _194  and  _195
REMARK   84  A    between atoms: _198  and  _200
REMARK   85  A    between atoms: _200  and  _201
REMARK   86  A    between atoms: _200  and  _203
REMARK   87  A    between atoms: _206  and  _208
REMARK   88  A    between atoms: _208  and  _209
REMARK   89  A    between atoms: _208  and  _211
REMARK   90  A    between atoms: _214  and  _216
REMARK   91  A    between atoms: _216  and  _217
REMARK   92  A    between atoms: _216  and  _219
REMARK   93  A    between atoms: _221  and  _223
REMARK   94  A    between atoms: _223  and  _224
REMARK   95  A    between atoms: _223  and  _226
REMARK   96  A    between atoms: _226  and  _227
REMARK   97  A    between atoms: _227  and  _228
REMARK   98  A    between atoms: _228  and  _229
REMARK   99  A    between atoms: _238  and  _240
REMARK  100  A    between atoms: _240  and  _241
REMARK  101  A    between atoms: _240  and  _243
REMARK  102  A    between atoms: _243  and  _244
REMARK  103  A    between atoms: _247  and  _249
REMARK  104  A    between atoms: _249  and  _250
REMARK  105  A    between atoms: _249  and  _252
REMARK  106  A    between atoms: _252  and  _253
REMARK  107  A    between atoms: _256  and  _258
REMARK  108  A    between atoms: _258  and  _259
REMARK  109  A    between atoms: _261  and  _263
REMARK  110  A    between atoms: _263  and  _264
REMARK  111  A    between atoms: _263  and  _266
REMARK  112  A    between atoms: _266  and  _267
REMARK  113  A    between atoms: _267  and  _268
REMARK  114  A    between atoms: _273  and  _275
REMARK  115  A    between atoms: _275  and  _276
REMARK  116  A    between atoms: _275  and  _278
REMARK  117  A    between atoms: _278  and  _279
REMARK  118  A    between atoms: _282  and  _284
REMARK  119  A    between atoms: _284  and  _285
REMARK  120  A    between atoms: _284  and  _287
REMARK  121  A    between atoms: _287  and  _288
REMARK  122  A    between atoms: _291  and  _293
REMARK  123  A    between atoms: _293  and  _294
REMARK  124  A    between atoms: _293  and  _296
REMARK  125  A    between atoms: _296  and  _297
REMARK  126  A    between atoms: _300  and  _302
REMARK  127  A    between atoms: _302  and  _303
REMARK  128  A    between atoms: _302  and  _305
REMARK  129  A    between atoms: _305  and  _306
REMARK  130  A    between atoms: _306  and  _307
REMARK  131  A    between atoms: _312  and  _314
REMARK  132  A    between atoms: _314  and  _315
REMARK  133  A    between atoms: _314  and  _317
REMARK  134  A    between atoms: _317  and  _318
REMARK  135  A    between atoms: _321  and  _323
REMARK  136  A    between atoms: _323  and  _324
REMARK  137  A    between atoms: _323  and  _326
REMARK  138  A    between atoms: _326  and  _327
REMARK  139  A    between atoms: _327  and  _328
REMARK  140  A    between atoms: _331  and  _332
REMARK  141  A    between atoms: _337  and  _339
REMARK  142  A    between atoms: _339  and  _340
REMARK  143  A    between atoms: _339  and  _342
REMARK  144  A    between atoms: _342  and  _343
REMARK  145  A    between atoms: _349  and  _351
REMARK  146  A    between atoms: _351  and  _352
REMARK  147  A    between atoms: _354  and  _356
REMARK  148  A    between atoms: _356  and  _357
REMARK  149  A    between atoms: _356  and  _359
REMARK  150  A    between atoms: _361  and  _363
REMARK  151  A    between atoms: _363  and  _364
REMARK  152  A    between atoms: _363  and  _366
REMARK  153  A    between atoms: _366  and  _367
REMARK  154  A    between atoms: _370  and  _372
REMARK  155  A    between atoms: _372  and  _373
REMARK  156  A    between atoms: _372  and  _375
REMARK  157  A    between atoms: _375  and  _376
REMARK  158  A    between atoms: _379  and  _381
REMARK  159  A    between atoms: _381  and  _382
REMARK  160  A    between atoms: _381  and  _384
REMARK  161  A    between atoms: _384  and  _385
REMARK  162  A    between atoms: _388  and  _390
REMARK  163  A    between atoms: _390  and  _391
REMARK  164  A    between atoms: _390  and  _393
REMARK  165  A    between atoms: _393  and  _394
REMARK  166  A    between atoms: _399  and  _400
REMARK  167  A    between atoms: _402  and  _404
REMARK  168  A    between atoms: _404  and  _405
REMARK  169  A    between atoms: _404  and  _407
REMARK  170  A    between atoms: _407  and  _408
REMARK  171  A    between atoms: _408  and  _409
REMARK  172  A    between atoms: _409  and  _410
REMARK  173  A    between atoms: _419  and  _421
REMARK  174  A    between atoms: _421  and  _422
REMARK  175  A    between atoms: _421  and  _424
REMARK  176  A    between atoms: _424  and  _425
REMARK  177  A    between atoms: _428  and  _430
REMARK  178  A    between atoms: _430  and  _431
REMARK  179  A    between atoms: _430  and  _433
REMARK  180  A    between atoms: _433  and  _434
REMARK  181  A    between atoms: _439  and  _441
REMARK  182  A    between atoms: _441  and  _442
REMARK  183  A    between atoms: _445  and  _447
REMARK  184  A    between atoms: _447  and  _448
REMARK  185  A    between atoms: _447  and  _450
REMARK  186  A    between atoms: _450  and  _451
REMARK  187  A    between atoms: _451  and  _452
REMARK  188  A    between atoms: _452  and  _453
REMARK  189  A    between atoms: _462  and  _464
REMARK  190  A    between atoms: _464  and  _465
REMARK  191  A    between atoms: _464  and  _467
REMARK  192  A    between atoms: _467  and  _468
REMARK  193  A    between atoms: _473  and  _475
REMARK  194  A    between atoms: _475  and  _476
REMARK  195  A    between atoms: _475  and  _478
REMARK  196  A    between atoms: _481  and  _483
REMARK  197  A    between atoms: _483  and  _484
REMARK  198  A    between atoms: _483  and  _486
REMARK  199  A    between atoms: _486  and  _487
REMARK  200  A    between atoms: _490  and  _492
REMARK  201  A    between atoms: _492  and  _493
REMARK  202  A    between atoms: _492  and  _495
REMARK  203  A    between atoms: _498  and  _500
REMARK  204  A    between atoms: _500  and  _501
REMARK  205  A    between atoms: _500  and  _503
REMARK  206  A    between atoms: _503  and  _504
REMARK  207  A    between atoms: _504  and  _505
REMARK  208  A    between atoms: _505  and  _506
REMARK  209  A    between atoms: _506  and  _507
REMARK  210  A    between atoms: _511  and  _513
REMARK  211  A    between atoms: _513  and  _514
REMARK  212  A    between atoms: _513  and  _516
REMARK  213  A    between atoms: _516  and  _517
REMARK  214  A    between atoms: _520  and  _522
REMARK  215  A    between atoms: _522  and  _523
REMARK  216  A    between atoms: _522  and  _525
REMARK  217  A    between atoms: _525  and  _526
REMARK  218  A    between atoms: _529  and  _531
REMARK  219  A    between atoms: _531  and  _532
REMARK  220  A    between atoms: _531  and  _534
REMARK  221  A    between atoms: _534  and  _535
REMARK  222  A    between atoms: _538  and  _540
REMARK  223  A    between atoms: _540  and  _541
REMARK  224  A    between atoms: _540  and  _543
REMARK  225  A    between atoms: _543  and  _544
REMARK  226  A    between atoms: _550  and  _552
REMARK  227  A    between atoms: _552  and  _553
REMARK  228  A    between atoms: _555  and  _557
REMARK  229  A    between atoms: _557  and  _558
REMARK  230  A    between atoms: _557  and  _560
REMARK  231  A    between atoms: _560  and  _561
REMARK  232  A    between atoms: _564  and  _566
REMARK  233  A    between atoms: _566  and  _567
REMARK  234  A    between atoms: _570  and  _572
REMARK  235  A    between atoms: _572  and  _573
REMARK  236  A    between atoms: _572  and  _575
REMARK  237  A    between atoms: _575  and  _576
REMARK  238  A    between atoms: _586  and  _588
REMARK  239  A    between atoms: _588  and  _589
REMARK  240  A    between atoms: _588  and  _591
REMARK  241  A    between atoms: _591  and  _592
REMARK  242  A    between atoms: _592  and  _593
REMARK  243  A    between atoms: _596  and  _598
REMARK  244  A    between atoms: _598  and  _599
REMARK  245  A    between atoms: _601  and  _603
REMARK  246  A    between atoms: _603  and  _604
REMARK  247  A    between atoms: _603  and  _606
REMARK  248  A    between atoms: _606  and  _607
REMARK  249  A    between atoms: _610  and  _612
REMARK  250  A    between atoms: _612  and  _613
REMARK  251  A    between atoms: _612  and  _615
REMARK  252  A    between atoms: _615  and  _616
REMARK  253  A    between atoms: _616  and  _617
REMARK                            x       y       z     vdW  Elec       q    Type
REMARK                         _______ _______ _______ _____ _____    ______ ____
ROOT
ATOM      1  CA  GLU A   1      17.543  40.472  54.631  0.00  0.00    +0.145 C 
ENDROOT
BRANCH   1   2
ATOM      2  C   GLU A   1      16.478  39.858  53.726  0.00  0.00    +0.238 C 
ATOM      3  N   ALA A   2      16.097  38.620  54.023  0.00  0.00    -0.298 N 
ATOM      4  H   ALA A   2      16.531  38.132  54.832  0.00  0.00    +0.150 HD
ATOM      5  O   GLU A   1      16.004  40.493  52.786  0.00  0.00    -0.274 OA
BRANCH   3   6
ATOM      6  CA  ALA A   2      15.082  37.935  53.234  0.00  0.00    +0.137 C 
ATOM      7  CB  ALA A   2      14.787  36.564  53.826  0.00  0.00    +0.030 C 
BRANCH   6   8
ATOM      8  C   ALA A   2      13.820  38.782  53.217  0.00  0.00    +0.227 C 
ATOM      9  O   ALA A   2      13.174  38.930  52.179  0.00  0.00    -0.286 OA
ENDBRANCH   6   8
ENDBRANCH   3   6
ENDBRANCH   1   2
BRANCH   1  10
ATOM     10  N   GLU A   1      17.329  39.977  55.982  0.00  0.00    -0.238 NA
ATOM     11  H   GLU A   1      18.023  39.337  56.418  0.00  0.00    +0.142 HD
ENDBRANCH   1  10
BRANCH   1  12
ATOM     12  CB  GLU A   1      18.942  40.097  54.133  0.00  0.00    +0.038 C 
BRANCH  12  13
ATOM     13  CG  GLU A   1      19.265  40.882  52.852  0.00  0.00    +0.116 C 
BRANCH  13  14
ATOM     14  CD  GLU A   1      19.511  42.360  53.164  0.00  0.00    +0.365 C 
ATOM     15  OE2 GLU A   1      19.438  42.753  54.353  0.00  0.00    -0.246 OA
ATOM     16  OE1 GLU A   1      19.781  43.130  52.214  0.00  0.00    -0.246 OA
ENDBRANCH  13  14
ENDBRANCH  12  13
ENDBRANCH   1  12
TORSDOF 7
REMARK  Name = ../refined-set-2016/1xkk/1xkk_pocket.pdb
REMARK  253 active torsions:
REMARK  status: ('A' for Active; 'I' for Inactive)
REMARK    1  A    between atoms: _1  and  _3
REMARK    2  A    between atoms: _3  and  _4
REMARK    3  A    between atoms: _3  and  _6
REMARK    4  A    between atoms: _9  and  _11
REMARK    5  A    between atoms: _11  and  _12
REMARK    6  A    between atoms: _11  and  _14
REMARK    7  A    between atoms: _14  and  _15
REMARK    8  A    between atoms: _18  and  _20
REMARK    9  A    between atoms: _20  and  _21
REMARK   10  A    between atoms: _23  and  _25
REMARK   11  A    between atoms: _25  and  _26
REMARK   12  A    between atoms: _25  and  _28
REMARK   13  A    between atoms: _28  and  _29
REMARK   14  A    between atoms: _31  and  _33
REMARK   15  A    between atoms: _33  and  _34
REMARK   16  A    between atoms: _36  and  _38
REMARK   17  A    between atoms: _38  and  _39
REMARK   18  A    between atoms: _38  and  _41
REMARK   19  A    between atoms: _41  and  _42
REMARK   20  A    between atoms: _48  and  _50
REMARK   21  A    between atoms: _50  and  _51
REMARK   22  A    between atoms: _50  and  _53
REMARK   23  A    between atoms: _53  and  _54
REMARK   24  A    between atoms: _57  and  _59
REMARK   25  A    between atoms: _59  and  _60
REMARK   26  A    between atoms: _59  and  _62
REMARK   27  A    between atoms: _65  and  _67
REMARK   28  A    between atoms: _67  and  _68
REMARK   29  A    between atoms: _67  and  _70
REMARK   30  A    between atoms: _70  and  _71
REMARK   31  A    between atoms: _76  and  _77
REMARK   32  A    between atoms: _79  and  _81
REMARK   33  A    between atoms: _81  and  _82
REMARK   34  A    between atoms: _81  and  _84
REMARK   35  A    between atoms: _84  and  _85
REMARK   36  A    between atoms: _85  and  _86
REMARK   37  A    between atoms: _86  and  _87
REMARK   38  A    between atoms: _87  and  _88
REMARK   39  A    between atoms: _92  and  _94
REMARK   40  A    between atoms: _94  and  _95
REMARK   41  A    between atoms: _98  and  _99
REMARK   42  A    between atoms: _104  and  _106
REMARK   43  A    between atoms: _106  and  _107
REMARK   44  A    between atoms: _106  and  _109
REMARK   45  A    between atoms: _112  and  _114
REMARK   46  A    between atoms: _114  and  _115
REMARK   47  A    between atoms: _118  and  _120
REMARK   48  A    between atoms: _120  and  _121
REMARK   49  A    between atoms: _120  and  _123
REMARK   50  A    between atoms: _123  and  _124
REMARK   51  A    between atoms: _127  and  _129
REMARK   52  A    between atoms: _129  and  _130
REMARK   53  A    between atoms: _129  and  _132
REMARK   54  A    between atoms: _132  and  _133
REMARK   55  A    between atoms: _133  and  _134
REMARK   56  A    between atoms: _134  and  _135
REMARK   57  A    between atoms: _135  and  _136
REMARK   58  A    between atoms: _140  and  _142
REMARK   59  A    between atoms: _142  and  _143
REMARK   60  A    between atoms: _142  and  _145
REMARK   61  A    between atoms: _145  and  _146
REMARK   62  A    between atoms: _146  and  _147
REMARK   63  A    between atoms: _150  and  _152
REMARK   64  A    between atoms: _152  and  _153
REMARK   65  A    between atoms: _152  and  _155
REMARK   66  A    between atoms: _155  and  _156
REMARK   67  A    between atoms: _159  and  _161
REMARK   68  A    between atoms: _161  and  _162
REMARK   69  A    between atoms: _161  and  _164
REMARK   70  A    between atoms: _164  and  _165
REMARK   71  A    between atoms: _165  and  _166
REMARK   72  A    between atoms: _169  and  _171
REMARK   73  A    between atoms: _171  and  _172
REMARK   74  A    between atoms: _175  and  _177
REMARK   75  A    between atoms: _177  and  _178
REMARK   76  A    between atoms: _177  and  _180
REMARK   77  A    between atoms: _183  and  _185
REMARK   78  A    between atoms: _185  and  _186
REMARK   79  A    between atoms: _185  and  _188
REMARK   80  A    between atoms: _188  and  _189
REMARK   81  A    between atoms: _189  and  _190
REMARK   82  A    between atoms: _192  and  _194
REMARK   83  A    between atoms: _194  and  _195
REMARK   84  A    between atoms: _198  and  _200
REMARK   85  A    between atoms: _200  and  _201
REMARK   86  A    between atoms: _200  and  _203
REMARK   87  A    between atoms: _206  and  _208
REMARK   88  A    between atoms: _208  and  _209
REMARK   89  A    between atoms: _208  and  _211
REMARK   90  A    between atoms: _214  and  _216
REMARK   91  A    between atoms: _216  and  _217
REMARK   92  A    between atoms: _216  and  _219
REMARK   93  A    between atoms: _221  and  _223
REMARK   94  A    between atoms: _223  and  _224
REMARK   95  A    between atoms: _223  and  _226
REMARK   96  A    between atoms: _226  and  _227
REMARK   97  A    between atoms: _227  and  _228
REMARK   98  A    between atoms: _228  and  _229
REMARK   99  A    between atoms: _238  and  _240
REMARK  100  A    between atoms: _240  and  _241
REMARK  101  A    between atoms: _240  and  _243
REMARK  102  A    between atoms: _243  and  _244
REMARK  103  A    between atoms: _247  and  _249
REMARK  104  A    between atoms: _249  and  _250
REMARK  105  A    between atoms: _249  and  _252
REMARK  106  A    between atoms: _252  and  _253
REMARK  107  A    between atoms: _256  and  _258
REMARK  108  A    between atoms: _258  and  _259
REMARK  109  A    between atoms: _261  and  _263
REMARK  110  A    between atoms: _263  and  _264
REMARK  111  A    between atoms: _263  and  _266
REMARK  112  A    between atoms: _266  and  _267
REMARK  113  A    between atoms: _267  and  _268
REMARK  114  A    between atoms: _273  and  _275
REMARK  115  A    between atoms: _275  and  _276
REMARK  116  A    between atoms: _275  and  _278
REMARK  117  A    between atoms: _278  and  _279
REMARK  118  A    between atoms: _282  and  _284
REMARK  119  A    between atoms: _284  and  _285
REMARK  120  A    between atoms: _284  and  _287
REMARK  121  A    between atoms: _287  and  _288
REMARK  122  A    between atoms: _291  and  _293
REMARK  123  A    between atoms: _293  and  _294
REMARK  124  A    between atoms: _293  and  _296
REMARK  125  A    between atoms: _296  and  _297
REMARK  126  A    between atoms: _300  and  _302
REMARK  127  A    between atoms: _302  and  _303
REMARK  128  A    between atoms: _302  and  _305
REMARK  129  A    between atoms: _305  and  _306
REMARK  130  A    between atoms: _306  and  _307
REMARK  131  A    between atoms: _312  and  _314
REMARK  132  A    between atoms: _314  and  _315
REMARK  133  A    between atoms: _314  and  _317
REMARK  134  A    between atoms: _317  and  _318
REMARK  135  A    between atoms: _321  and  _323
REMARK  136  A    between atoms: _323  and  _324
REMARK  137  A    between atoms: _323  and  _326
REMARK  138  A    between atoms: _326  and  _327
REMARK  139  A    between atoms: _327  and  _328
REMARK  140  A    between atoms: _331  and  _332
REMARK  141  A    between atoms: _337  and  _339
REMARK  142  A    between atoms: _339  and  _340
REMARK  143  A    between atoms: _339  and  _342
REMARK  144  A    between atoms: _342  and  _343
REMARK  145  A    between atoms: _349  and  _351
REMARK  146  A    between atoms: _351  and  _352
REMARK  147  A    between atoms: _354  and  _356
REMARK  148  A    between atoms: _356  and  _357
REMARK  149  A    between atoms: _356  and  _359
REMARK  150  A    between atoms: _361  and  _363
REMARK  151  A    between atoms: _363  and  _364
REMARK  152  A    between atoms: _363  and  _366
REMARK  153  A    between atoms: _366  and  _367
REMARK  154  A    between atoms: _370  and  _372
REMARK  155  A    between atoms: _372  and  _373
REMARK  156  A    between atoms: _372  and  _375
REMARK  157  A    between atoms: _375  and  _376
REMARK  158  A    between atoms: _379  and  _381
REMARK  159  A    between atoms: _381  and  _382
REMARK  160  A    between atoms: _381  and  _384
REMARK  161  A    between atoms: _384  and  _385
REMARK  162  A    between atoms: _388  and  _390
REMARK  163  A    between atoms: _390  and  _391
REMARK  164  A    between atoms: _390  and  _393
REMARK  165  A    between atoms: _393  and  _394
REMARK  166  A    between atoms: _399  and  _400
REMARK  167  A    between atoms: _402  and  _404
REMARK  168  A    between atoms: _404  and  _405
REMARK  169  A    between atoms: _404  and  _407
REMARK  170  A    between atoms: _407  and  _408
REMARK  171  A    between atoms: _408  and  _409
REMARK  172  A    between atoms: _409  and  _410
REMARK  173  A    between atoms: _419  and  _421
REMARK  174  A    between atoms: _421  and  _422
REMARK  175  A    between atoms: _421  and  _424
REMARK  176  A    between atoms: _424  and  _425
REMARK  177  A    between atoms: _428  and  _430
REMARK  178  A    between atoms: _430  and  _431
REMARK  179  A    between atoms: _430  and  _433
REMARK  180  A    between atoms: _433  and  _434
REMARK  181  A    between atoms: _439  and  _441
REMARK  182  A    between atoms: _441  and  _442
REMARK  183  A    between atoms: _445  and  _447
REMARK  184  A    between atoms: _447  and  _448
REMARK  185  A    between atoms: _447  and  _450
REMARK  186  A    between atoms: _450  and  _451
REMARK  187  A    between atoms: _451  and  _452
REMARK  188  A    between atoms: _452  and  _453
REMARK  189  A    between atoms: _462  and  _464
REMARK  190  A    between atoms: _464  and  _465
REMARK  191  A    between atoms: _464  and  _467
REMARK  192  A    between atoms: _467  and  _468
REMARK  193  A    between atoms: _473  and  _475
REMARK  194  A    between atoms: _475  and  _476
REMARK  195  A    between atoms: _475  and  _478
REMARK  196  A    between atoms: _481  and  _483
REMARK  197  A    between atoms: _483  and  _484
REMARK  198  A    between atoms: _483  and  _486
REMARK  199  A    between atoms: _486  and  _487
REMARK  200  A    between atoms: _490  and  _492
REMARK  201  A    between atoms: _492  and  _493
REMARK  202  A    between atoms: _492  and  _495
REMARK  203  A    between atoms: _498  and  _500
REMARK  204  A    between atoms: _500  and  _501
REMARK  205  A    between atoms: _500  and  _503
REMARK  206  A    between atoms: _503  and  _504
REMARK  207  A    between atoms: _504  and  _505
REMARK  208  A    between atoms: _505  and  _506
REMARK  209  A    between atoms: _506  and  _507
REMARK  210  A    between atoms: _511  and  _513
REMARK  211  A    between atoms: _513  and  _514
REMARK  212  A    between atoms: _513  and  _516
REMARK  213  A    between atoms: _516  and  _517
REMARK  214  A    between atoms: _520  and  _522
REMARK  215  A    between atoms: _522  and  _523
REMARK  216  A    between atoms: _522  and  _525
REMARK  217  A    between atoms: _525  and  _526
REMARK  218  A    between atoms: _529  and  _531
REMARK  219  A    between atoms: _531  and  _532
REMARK  220  A    between atoms: _531  and  _534
REMARK  221  A    between atoms: _534  and  _535
REMARK  222  A    between atoms: _538  and  _540
REMARK  223  A    between atoms: _540  and  _541
REMARK  224  A    between atoms: _540  and  _543
REMARK  225  A    between atoms: _543  and  _544
REMARK  226  A    between atoms: _550  and  _552
REMARK  227  A    between atoms: _552  and  _553
REMARK  228  A    between atoms: _555  and  _557
REMARK  229  A    between atoms: _557  and  _558
REMARK  230  A    between atoms: _557  and  _560
REMARK  231  A    between atoms: _560  and  _561
REMARK  232  A    between atoms: _564  and  _566
REMARK  233  A    between atoms: _566  and  _567
REMARK  234  A    between atoms: _570  and  _572
REMARK  235  A    between atoms: _572  and  _573
REMARK  236  A    between atoms: _572  and  _575
REMARK  237  A    between atoms: _575  and  _576
REMARK  238  A    between atoms: _586  and  _588
REMARK  239  A    between atoms: _588  and  _589
REMARK  240  A    between atoms: _588  and  _591
REMARK  241  A    between atoms: _591  and  _592
REMARK  242  A    between atoms: _592  and  _593
REMARK  243  A    between atoms: _596  and  _598
REMARK  244  A    between atoms: _598  and  _599
REMARK  245  A    between atoms: _601  and  _603
REMARK  246  A    between atoms: _603  and  _604
REMARK  247  A    between atoms: _603  and  _606
REMARK  248  A    between atoms: _606  and  _607
REMARK  249  A    between atoms: _610  and  _612
REMARK  250  A    between atoms: _612  and  _613
REMARK  251  A    between atoms: _612  and  _615
REMARK  252  A    between atoms: _615  and  _616
REMARK  253  A    between atoms: _616  and  _617
REMARK                            x       y       z     vdW  Elec       q    Type
REMARK                         _______ _______ _______ _____ _____    ______ ____
ROOT
ATOM      1  CA  MET A   2      13.632  40.832  49.334  0.00  0.00    +0.149 C 
ENDROOT
BRANCH   1   3
ATOM      2  C   VAL A   1      13.323  42.583  51.009  0.00  0.00    +0.238 C 
ATOM      3  N   MET A   2      13.866  41.424  50.649  0.00  0.00    -0.297 N 
ATOM      4  H   MET A   2      14.477  40.923  51.325  0.00  0.00    +0.150 HD
ATOM      5  O   VAL A   1      12.591  43.239  50.268  0.00  0.00    -0.274 OA
BRANCH   2   6
ATOM      6  CA  VAL A   1      13.649  43.073  52.423  0.00  0.00    +0.145 C 
BRANCH   6   7
ATOM      7  CB  VAL A   1      15.079  43.671  52.446  0.00  0.00    +0.025 C 
ATOM      8  CG2 VAL A   1      15.333  44.358  53.775  0.00  0.00    +0.002 C 
ATOM      9  CG1 VAL A   1      15.244  44.669  51.318  0.00  0.00    +0.002 C 
ENDBRANCH   6   7
BRANCH   6  10
ATOM     10  N   VAL A   1      13.517  41.968  53.365  0.00  0.00    -0.238 NA
ATOM     11  H   VAL A   1      14.338  41.666  53.927  0.00  0.00    +0.142 HD
ENDBRANCH   6  10
ENDBRANCH   2   6
ENDBRANCH   1   3
BRANCH   1  12
ATOM     12  C   MET A   2      12.163  40.524  49.106  0.00  0.00    +0.241 C 
ATOM     13  N   ALA A   3      11.399  40.425  50.188  0.00  0.00    -0.298 N 
ATOM     14  H   ALA A   3      11.822  40.565  51.128  0.00  0.00    +0.150 HD
ATOM     15  O   MET A   2      11.728  40.379  47.970  0.00  0.00    -0.273 OA
BRANCH  13  16
ATOM     16  CA  ALA A   3       9.975  40.123  50.080  0.00  0.00    +0.137 C 
ATOM     17  CB  ALA A   3       9.587  39.092  51.122  0.00  0.00    +0.030 C 
BRANCH  16  18
ATOM     18  C   ALA A   3       9.063  41.337  50.206  0.00  0.00    +0.227 C 
ATOM     19  O   ALA A   3       7.902  41.279  49.814  0.00  0.00    -0.286 OA
ENDBRANCH  16  18
ENDBRANCH  13  16
ENDBRANCH   1  12
BRANCH   1  20
ATOM     20  CB  MET A   2      14.445  39.542  49.178  0.00  0.00    +0.041 C 
BRANCH  20  21
ATOM     21  CG  MET A   2      15.901  39.881  48.923  0.00  0.00    +0.060 C 
BRANCH  21  22
ATOM     22  SD  MET A   2      16.933  38.522  49.479  0.00  0.00    -0.139 S 
ATOM     23  CE  MET A   2      16.500  37.280  48.345  0.00  0.00    +0.069 C 
ENDBRANCH  21  22
ENDBRANCH  20  21
ENDBRANCH   1  20
TORSDOF 10
REMARK  Name = ../refined-set-2016/1xkk/1xkk_pocket.pdb
REMARK  253 active torsions:
REMARK  status: ('A' for Active; 'I' for Inactive)
REMARK    1  A    between atoms: _1  and  _3
REMARK    2  A    between atoms: _3  and  _4
REMARK    3  A    between atoms: _3  and  _6
REMARK    4  A    between atoms: _9  and  _11
REMARK    5  A    between atoms: _11  and  _12
REMARK    6  A    between atoms: _11  and  _14
REMARK    7  A    between atoms: _14  and  _15
REMARK    8  A    between atoms: _18  and  _20
REMARK    9  A    between atoms: _20  and  _21
REMARK   10  A    between atoms: _23  and  _25
REMARK   11  A    between atoms: _25  and  _26
REMARK   12  A    between atoms: _25  and  _28
REMARK   13  A    between atoms: _28  and  _29
REMARK   14  A    between atoms: _31  and  _33
REMARK   15  A    between atoms: _33  and  _34
REMARK   16  A    between atoms: _36  and  _38
REMARK   17  A    between atoms: _38  and  _39
REMARK   18  A    between atoms: _38  and  _41
REMARK   19  A    between atoms: _41  and  _42
REMARK   20  A    between atoms: _48  and  _50
REMARK   21  A    between atoms: _50  and  _51
REMARK   22  A    between atoms: _50  and  _53
REMARK   23  A    between atoms: _53  and  _54
REMARK   24  A    between atoms: _57  and  _59
REMARK   25  A    between atoms: _59  and  _60
REMARK   26  A    between atoms: _59  and  _62
REMARK   27  A    between atoms: _65  and  _67
REMARK   28  A    between atoms: _67  and  _68
REMARK   29  A    between atoms: _67  and  _70
REMARK   30  A    between atoms: _70  and  _71
REMARK   31  A    between atoms: _76  and  _77
REMARK   32  A    between atoms: _79  and  _81
REMARK   33  A    between atoms: _81  and  _82
REMARK   34  A    between atoms: _81  and  _84
REMARK   35  A    between atoms: _84  and  _85
REMARK   36  A    between atoms: _85  and  _86
REMARK   37  A    between atoms: _86  and  _87
REMARK   38  A    between atoms: _87  and  _88
REMARK   39  A    between atoms: _92  and  _94
REMARK   40  A    between atoms: _94  and  _95
REMARK   41  A    between atoms: _98  and  _99
REMARK   42  A    between atoms: _104  and  _106
REMARK   43  A    between atoms: _106  and  _107
REMARK   44  A    between atoms: _106  and  _109
REMARK   45  A    between atoms: _112  and  _114
REMARK   46  A    between atoms: _114  and  _115
REMARK   47  A    between atoms: _118  and  _120
REMARK   48  A    between atoms: _120  and  _121
REMARK   49  A    between atoms: _120  and  _123
REMARK   50  A    between atoms: _123  and  _124
REMARK   51  A    between atoms: _127  and  _129
REMARK   52  A    between atoms: _129  and  _130
REMARK   53  A    between atoms: _129  and  _132
REMARK   54  A    between atoms: _132  and  _133
REMARK   55  A    between atoms: _133  and  _134
REMARK   56  A    between atoms: _134  and  _135
REMARK   57  A    between atoms: _135  and  _136
REMARK   58  A    between atoms: _140  and  _142
REMARK   59  A    between atoms: _142  and  _143
REMARK   60  A    between atoms: _142  and  _145
REMARK   61  A    between atoms: _145  and  _146
REMARK   62  A    between atoms: _146  and  _147
REMARK   63  A    between atoms: _150  and  _152
REMARK   64  A    between atoms: _152  and  _153
REMARK   65  A    between atoms: _152  and  _155
REMARK   66  A    between atoms: _155  and  _156
REMARK   67  A    between atoms: _159  and  _161
REMARK   68  A    between atoms: _161  and  _162
REMARK   69  A    between atoms: _161  and  _164
REMARK   70  A    between atoms: _164  and  _165
REMARK   71  A    between atoms: _165  and  _166
REMARK   72  A    between atoms: _169  and  _171
REMARK   73  A    between atoms: _171  and  _172
REMARK   74  A    between atoms: _175  and  _177
REMARK   75  A    between atoms: _177  and  _178
REMARK   76  A    between atoms: _177  and  _180
REMARK   77  A    between atoms: _183  and  _185
REMARK   78  A    between atoms: _185  and  _186
REMARK   79  A    between atoms: _185  and  _188
REMARK   80  A    between atoms: _188  and  _189
REMARK   81  A    between atoms: _189  and  _190
REMARK   82  A    between atoms: _192  and  _194
REMARK   83  A    between atoms: _194  and  _195
REMARK   84  A    between atoms: _198  and  _200
REMARK   85  A    between atoms: _200  and  _201
REMARK   86  A    between atoms: _200  and  _203
REMARK   87  A    between atoms: _206  and  _208
REMARK   88  A    between atoms: _208  and  _209
REMARK   89  A    between atoms: _208  and  _211
REMARK   90  A    between atoms: _214  and  _216
REMARK   91  A    between atoms: _216  and  _217
REMARK   92  A    between atoms: _216  and  _219
REMARK   93  A    between atoms: _221  and  _223
REMARK   94  A    between atoms: _223  and  _224
REMARK   95  A    between atoms: _223  and  _226
REMARK   96  A    between atoms: _226  and  _227
REMARK   97  A    between atoms: _227  and  _228
REMARK   98  A    between atoms: _228  and  _229
REMARK   99  A    between atoms: _238  and  _240
REMARK  100  A    between atoms: _240  and  _241
REMARK  101  A    between atoms: _240  and  _243
REMARK  102  A    between atoms: _243  and  _244
REMARK  103  A    between atoms: _247  and  _249
REMARK  104  A    between atoms: _249  and  _250
REMARK  105  A    between atoms: _249  and  _252
REMARK  106  A    between atoms: _252  and  _253
REMARK  107  A    between atoms: _256  and  _258
REMARK  108  A    between atoms: _258  and  _259
REMARK  109  A    between atoms: _261  and  _263
REMARK  110  A    between atoms: _263  and  _264
REMARK  111  A    between atoms: _263  and  _266
REMARK  112  A    between atoms: _266  and  _267
REMARK  113  A    between atoms: _267  and  _268
REMARK  114  A    between atoms: _273  and  _275
REMARK  115  A    between atoms: _275  and  _276
REMARK  116  A    between atoms: _275  and  _278
REMARK  117  A    between atoms: _278  and  _279
REMARK  118  A    between atoms: _282  and  _284
REMARK  119  A    between atoms: _284  and  _285
REMARK  120  A    between atoms: _284  and  _287
REMARK  121  A    between atoms: _287  and  _288
REMARK  122  A    between atoms: _291  and  _293
REMARK  123  A    between atoms: _293  and  _294
REMARK  124  A    between atoms: _293  and  _296
REMARK  125  A    between atoms: _296  and  _297
REMARK  126  A    between atoms: _300  and  _302
REMARK  127  A    between atoms: _302  and  _303
REMARK  128  A    between atoms: _302  and  _305
REMARK  129  A    between atoms: _305  and  _306
REMARK  130  A    between atoms: _306  and  _307
REMARK  131  A    between atoms: _312  and  _314
REMARK  132  A    between atoms: _314  and  _315
REMARK  133  A    between atoms: _314  and  _317
REMARK  134  A    between atoms: _317  and  _318
REMARK  135  A    between atoms: _321  and  _323
REMARK  136  A    between atoms: _323  and  _324
REMARK  137  A    between atoms: _323  and  _326
REMARK  138  A    between atoms: _326  and  _327
REMARK  139  A    between atoms: _327  and  _328
REMARK  140  A    between atoms: _331  and  _332
REMARK  141  A    between atoms: _337  and  _339
REMARK  142  A    between atoms: _339  and  _340
REMARK  143  A    between atoms: _339  and  _342
REMARK  144  A    between atoms: _342  and  _343
REMARK  145  A    between atoms: _349  and  _351
REMARK  146  A    between atoms: _351  and  _352
REMARK  147  A    between atoms: _354  and  _356
REMARK  148  A    between atoms: _356  and  _357
REMARK  149  A    between atoms: _356  and  _359
REMARK  150  A    between atoms: _361  and  _363
REMARK  151  A    between atoms: _363  and  _364
REMARK  152  A    between atoms: _363  and  _366
REMARK  153  A    between atoms: _366  and  _367
REMARK  154  A    between atoms: _370  and  _372
REMARK  155  A    between atoms: _372  and  _373
REMARK  156  A    between atoms: _372  and  _375
REMARK  157  A    between atoms: _375  and  _376
REMARK  158  A    between atoms: _379  and  _381
REMARK  159  A    between atoms: _381  and  _382
REMARK  160  A    between atoms: _381  and  _384
REMARK  161  A    between atoms: _384  and  _385
REMARK  162  A    between atoms: _388  and  _390
REMARK  163  A    between atoms: _390  and  _391
REMARK  164  A    between atoms: _390  and  _393
REMARK  165  A    between atoms: _393  and  _394
REMARK  166  A    between atoms: _399  and  _400
REMARK  167  A    between atoms: _402  and  _404
REMARK  168  A    between atoms: _404  and  _405
REMARK  169  A    between atoms: _404  and  _407
REMARK  170  A    between atoms: _407  and  _408
REMARK  171  A    between atoms: _408  and  _409
REMARK  172  A    between atoms: _409  and  _410
REMARK  173  A    between atoms: _419  and  _421
REMARK  174  A    between atoms: _421  and  _422
REMARK  175  A    between atoms: _421  and  _424
REMARK  176  A    between atoms: _424  and  _425
REMARK  177  A    between atoms: _428  and  _430
REMARK  178  A    between atoms: _430  and  _431
REMARK  179  A    between atoms: _430  and  _433
REMARK  180  A    between atoms: _433  and  _434
REMARK  181  A    between atoms: _439  and  _441
REMARK  182  A    between atoms: _441  and  _442
REMARK  183  A    between atoms: _445  and  _447
REMARK  184  A    between atoms: _447  and  _448
REMARK  185  A    between atoms: _447  and  _450
REMARK  186  A    between atoms: _450  and  _451
REMARK  187  A    between atoms: _451  and  _452
REMARK  188  A    between atoms: _452  and  _453
REMARK  189  A    between atoms: _462  and  _464
REMARK  190  A    between atoms: _464  and  _465
REMARK  191  A    between atoms: _464  and  _467
REMARK  192  A    between atoms: _467  and  _468
REMARK  193  A    between atoms: _473  and  _475
REMARK  194  A    between atoms: _475  and  _476
REMARK  195  A    between atoms: _475  and  _478
REMARK  196  A    between atoms: _481  and  _483
REMARK  197  A    between atoms: _483  and  _484
REMARK  198  A    between atoms: _483  and  _486
REMARK  199  A    between atoms: _486  and  _487
REMARK  200  A    between atoms: _490  and  _492
REMARK  201  A    between atoms: _492  and  _493
REMARK  202  A    between atoms: _492  and  _495
REMARK  203  A    between atoms: _498  and  _500
REMARK  204  A    between atoms: _500  and  _501
REMARK  205  A    between atoms: _500  and  _503
REMARK  206  A    between atoms: _503  and  _504
REMARK  207  A    between atoms: _504  and  _505
REMARK  208  A    between atoms: _505  and  _506
REMARK  209  A    between atoms: _506  and  _507
REMARK  210  A    between atoms: _511  and  _513
REMARK  211  A    between atoms: _513  and  _514
REMARK  212  A    between atoms: _513  and  _516
REMARK  213  A    between atoms: _516  and  _517
REMARK  214  A    between atoms: _520  and  _522
REMARK  215  A    between atoms: _522  and  _523
REMARK  216  A    between atoms: _522  and  _525
REMARK  217  A    between atoms: _525  and  _526
REMARK  218  A    between atoms: _529  and  _531
REMARK  219  A    between atoms: _531  and  _532
REMARK  220  A    between atoms: _531  and  _534
REMARK  221  A    between atoms: _534  and  _535
REMARK  222  A    between atoms: _538  and  _540
REMARK  223  A    between atoms: _540  and  _541
REMARK  224  A    between atoms: _540  and  _543
REMARK  225  A    between atoms: _543  and  _544
REMARK  226  A    between atoms: _550  and  _552
REMARK  227  A    between atoms: _552  and  _553
REMARK  228  A    between atoms: _555  and  _557
REMARK  229  A    between atoms: _557  and  _558
REMARK  230  A    between atoms: _557  and  _560
REMARK  231  A    between atoms: _560  and  _561
REMARK  232  A    between atoms: _564  and  _566
REMARK  233  A    between atoms: _566  and  _567
REMARK  234  A    between atoms: _570  and  _572
REMARK  235  A    between atoms: _572  and  _573
REMARK  236  A    between atoms: _572  and  _575
REMARK  237  A    between atoms: _575  and  _576
REMARK  238  A    between atoms: _586  and  _588
REMARK  239  A    between atoms: _588  and  _589
REMARK  240  A    between atoms: _588  and  _591
REMARK  241  A    between atoms: _591  and  _592
REMARK  242  A    between atoms: _592  and  _593
REMARK  243  A    between atoms: _596  and  _598
REMARK  244  A    between atoms: _598  and  _599
REMARK  245  A    between atoms: _601  and  _603
REMARK  246  A    between atoms: _603  and  _604
REMARK  247  A    between atoms: _603  and  _606
REMARK  248  A    between atoms: _606  and  _607
REMARK  249  A    between atoms: _610  and  _612
REMARK  250  A    between atoms: _612  and  _613
REMARK  251  A    between atoms: _612  and  _615
REMARK  252  A    between atoms: _615  and  _616
REMARK  253  A    between atoms: _616  and  _617
REMARK                            x       y       z     vdW  Elec       q    Type
REMARK                         _______ _______ _______ _____ _____    ______ ____
ROOT
ATOM      1  CA  VAL A   1       9.585  45.208  47.581  0.00  0.00    +0.133 C 
ENDROOT
BRANCH   1   2
ATOM      2  CB  VAL A   1      10.791  44.883  46.679  0.00  0.00    +0.023 C 
ATOM      3  CG2 VAL A   1      12.089  45.125  47.445  0.00  0.00    +0.002 C 
ATOM      4  CG1 VAL A   1      10.717  43.440  46.202  0.00  0.00    +0.002 C 
ENDBRANCH   1   2
BRANCH   1   5
ATOM      5  N   VAL A   1       9.541  44.327  48.734  0.00  0.00    -0.239 NA
ATOM      6  H   VAL A   1      10.121  43.464  48.746  0.00  0.00    +0.142 HD
ENDBRANCH   1   5
BRANCH   1   7
ATOM      7  C   VAL A   1       8.295  45.046  46.789  0.00  0.00    +0.224 C 
ATOM      8  O   VAL A   1       7.753  43.941  46.677  0.00  0.00    -0.287 OA
ENDBRANCH   1   7
TORSDOF 3
REMARK  Name = ../refined-set-2016/1xkk/1xkk_pocket.pdb
REMARK  253 active torsions:
REMARK  status: ('A' for Active; 'I' for Inactive)
REMARK    1  A    between atoms: _1  and  _3
REMARK    2  A    between atoms: _3  and  _4
REMARK    3  A    between atoms: _3  and  _6
REMARK    4  A    between atoms: _9  and  _11
REMARK    5  A    between atoms: _11  and  _12
REMARK    6  A    between atoms: _11  and  _14
REMARK    7  A    between atoms: _14  and  _15
REMARK    8  A    between atoms: _18  and  _20
REMARK    9  A    between atoms: _20  and  _21
REMARK   10  A    between atoms: _23  and  _25
REMARK   11  A    between atoms: _25  and  _26
REMARK   12  A    between atoms: _25  and  _28
REMARK   13  A    between atoms: _28  and  _29
REMARK   14  A    between atoms: _31  and  _33
REMARK   15  A    between atoms: _33  and  _34
REMARK   16  A    between atoms: _36  and  _38
REMARK   17  A    between atoms: _38  and  _39
REMARK   18  A    between atoms: _38  and  _41
REMARK   19  A    between atoms: _41  and  _42
REMARK   20  A    between atoms: _48  and  _50
REMARK   21  A    between atoms: _50  and  _51
REMARK   22  A    between atoms: _50  and  _53
REMARK   23  A    between atoms: _53  and  _54
REMARK   24  A    between atoms: _57  and  _59
REMARK   25  A    between atoms: _59  and  _60
REMARK   26  A    between atoms: _59  and  _62
REMARK   27  A    between atoms: _65  and  _67
REMARK   28  A    between atoms: _67  and  _68
REMARK   29  A    between atoms: _67  and  _70
REMARK   30  A    between atoms: _70  and  _71
REMARK   31  A    between atoms: _76  and  _77
REMARK   32  A    between atoms: _79  and  _81
REMARK   33  A    between atoms: _81  and  _82
REMARK   34  A    between atoms: _81  and  _84
REMARK   35  A    between atoms: _84  and  _85
REMARK   36  A    between atoms: _85  and  _86
REMARK   37  A    between atoms: _86  and  _87
REMARK   38  A    between atoms: _87  and  _88
REMARK   39  A    between atoms: _92  and  _94
REMARK   40  A    between atoms: _94  and  _95
REMARK   41  A    between atoms: _98  and  _99
REMARK   42  A    between atoms: _104  and  _106
REMARK   43  A    between atoms: _106  and  _107
REMARK   44  A    between atoms: _106  and  _109
REMARK   45  A    between atoms: _112  and  _114
REMARK   46  A    between atoms: _114  and  _115
REMARK   47  A    between atoms: _118  and  _120
REMARK   48  A    between atoms: _120  and  _121
REMARK   49  A    between atoms: _120  and  _123
REMARK   50  A    between atoms: _123  and  _124
REMARK   51  A    between atoms: _127  and  _129
REMARK   52  A    between atoms: _129  and  _130
REMARK   53  A    between atoms: _129  and  _132
REMARK   54  A    between atoms: _132  and  _133
REMARK   55  A    between atoms: _133  and  _134
REMARK   56  A    between atoms: _134  and  _135
REMARK   57  A    between atoms: _135  and  _136
REMARK   58  A    between atoms: _140  and  _142
REMARK   59  A    between atoms: _142  and  _143
REMARK   60  A    between atoms: _142  and  _145
REMARK   61  A    between atoms: _145  and  _146
REMARK   62  A    between atoms: _146  and  _147
REMARK   63  A    between atoms: _150  and  _152
REMARK   64  A    between atoms: _152  and  _153
REMARK   65  A    between atoms: _152  and  _155
REMARK   66  A    between atoms: _155  and  _156
REMARK   67  A    between atoms: _159  and  _161
REMARK   68  A    between atoms: _161  and  _162
REMARK   69  A    between atoms: _161  and  _164
REMARK   70  A    between atoms: _164  and  _165
REMARK   71  A    between atoms: _165  and  _166
REMARK   72  A    between atoms: _169  and  _171
REMARK   73  A    between atoms: _171  and  _172
REMARK   74  A    between atoms: _175  and  _177
REMARK   75  A    between atoms: _177  and  _178
REMARK   76  A    between atoms: _177  and  _180
REMARK   77  A    between atoms: _183  and  _185
REMARK   78  A    between atoms: _185  and  _186
REMARK   79  A    between atoms: _185  and  _188
REMARK   80  A    between atoms: _188  and  _189
REMARK   81  A    between atoms: _189  and  _190
REMARK   82  A    between atoms: _192  and  _194
REMARK   83  A    between atoms: _194  and  _195
REMARK   84  A    between atoms: _198  and  _200
REMARK   85  A    between atoms: _200  and  _201
REMARK   86  A    between atoms: _200  and  _203
REMARK   87  A    between atoms: _206  and  _208
REMARK   88  A    between atoms: _208  and  _209
REMARK   89  A    between atoms: _208  and  _211
REMARK   90  A    between atoms: _214  and  _216
REMARK   91  A    between atoms: _216  and  _217
REMARK   92  A    between atoms: _216  and  _219
REMARK   93  A    between atoms: _221  and  _223
REMARK   94  A    between atoms: _223  and  _224
REMARK   95  A    between atoms: _223  and  _226
REMARK   96  A    between atoms: _226  and  _227
REMARK   97  A    between atoms: _227  and  _228
REMARK   98  A    between atoms: _228  and  _229
REMARK   99  A    between atoms: _238  and  _240
REMARK  100  A    between atoms: _240  and  _241
REMARK  101  A    between atoms: _240  and  _243
REMARK  102  A    between atoms: _243  and  _244
REMARK  103  A    between atoms: _247  and  _249
REMARK  104  A    between atoms: _249  and  _250
REMARK  105  A    between atoms: _249  and  _252
REMARK  106  A    between atoms: _252  and  _253
REMARK  107  A    between atoms: _256  and  _258
REMARK  108  A    between atoms: _258  and  _259
REMARK  109  A    between atoms: _261  and  _263
REMARK  110  A    between atoms: _263  and  _264
REMARK  111  A    between atoms: _263  and  _266
REMARK  112  A    between atoms: _266  and  _267
REMARK  113  A    between atoms: _267  and  _268
REMARK  114  A    between atoms: _273  and  _275
REMARK  115  A    between atoms: _275  and  _276
REMARK  116  A    between atoms: _275  and  _278
REMARK  117  A    between atoms: _278  and  _279
REMARK  118  A    between atoms: _282  and  _284
REMARK  119  A    between atoms: _284  and  _285
REMARK  120  A    between atoms: _284  and  _287
REMARK  121  A    between atoms: _287  and  _288
REMARK  122  A    between atoms: _291  and  _293
REMARK  123  A    between atoms: _293  and  _294
REMARK  124  A    between atoms: _293  and  _296
REMARK  125  A    between atoms: _296  and  _297
REMARK  126  A    between atoms: _300  and  _302
REMARK  127  A    between atoms: _302  and  _303
REMARK  128  A    between atoms: _302  and  _305
REMARK  129  A    between atoms: _305  and  _306
REMARK  130  A    between atoms: _306  and  _307
REMARK  131  A    between atoms: _312  and  _314
REMARK  132  A    between atoms: _314  and  _315
REMARK  133  A    between atoms: _314  and  _317
REMARK  134  A    between atoms: _317  and  _318
REMARK  135  A    between atoms: _321  and  _323
REMARK  136  A    between atoms: _323  and  _324
REMARK  137  A    between atoms: _323  and  _326
REMARK  138  A    between atoms: _326  and  _327
REMARK  139  A    between atoms: _327  and  _328
REMARK  140  A    between atoms: _331  and  _332
REMARK  141  A    between atoms: _337  and  _339
REMARK  142  A    between atoms: _339  and  _340
REMARK  143  A    between atoms: _339  and  _342
REMARK  144  A    between atoms: _342  and  _343
REMARK  145  A    between atoms: _349  and  _351
REMARK  146  A    between atoms: _351  and  _352
REMARK  147  A    between atoms: _354  and  _356
REMARK  148  A    between atoms: _356  and  _357
REMARK  149  A    between atoms: _356  and  _359
REMARK  150  A    between atoms: _361  and  _363
REMARK  151  A    between atoms: _363  and  _364
REMARK  152  A    between atoms: _363  and  _366
REMARK  153  A    between atoms: _366  and  _367
REMARK  154  A    between atoms: _370  and  _372
REMARK  155  A    between atoms: _372  and  _373
REMARK  156  A    between atoms: _372  and  _375
REMARK  157  A    between atoms: _375  and  _376
REMARK  158  A    between atoms: _379  and  _381
REMARK  159  A    between atoms: _381  and  _382
REMARK  160  A    between atoms: _381  and  _384
REMARK  161  A    between atoms: _384  and  _385
REMARK  162  A    between atoms: _388  and  _390
REMARK  163  A    between atoms: _390  and  _391
REMARK  164  A    between atoms: _390  and  _393
REMARK  165  A    between atoms: _393  and  _394
REMARK  166  A    between atoms: _399  and  _400
REMARK  167  A    between atoms: _402  and  _404
REMARK  168  A    between atoms: _404  and  _405
REMARK  169  A    between atoms: _404  and  _407
REMARK  170  A    between atoms: _407  and  _408
REMARK  171  A    between atoms: _408  and  _409
REMARK  172  A    between atoms: _409  and  _410
REMARK  173  A    between atoms: _419  and  _421
REMARK  174  A    between atoms: _421  and  _422
REMARK  175  A    between atoms: _421  and  _424
REMARK  176  A    between atoms: _424  and  _425
REMARK  177  A    between atoms: _428  and  _430
REMARK  178  A    between atoms: _430  and  _431
REMARK  179  A    between atoms: _430  and  _433
REMARK  180  A    between atoms: _433  and  _434
REMARK  181  A    between atoms: _439  and  _441
REMARK  182  A    between atoms: _441  and  _442
REMARK  183  A    between atoms: _445  and  _447
REMARK  184  A    between atoms: _447  and  _448
REMARK  185  A    between atoms: _447  and  _450
REMARK  186  A    between atoms: _450  and  _451
REMARK  187  A    between atoms: _451  and  _452
REMARK  188  A    between atoms: _452  and  _453
REMARK  189  A    between atoms: _462  and  _464
REMARK  190  A    between atoms: _464  and  _465
REMARK  191  A    between atoms: _464  and  _467
REMARK  192  A    between atoms: _467  and  _468
REMARK  193  A    between atoms: _473  and  _475
REMARK  194  A    between atoms: _475  and  _476
REMARK  195  A    between atoms: _475  and  _478
REMARK  196  A    between atoms: _481  and  _483
REMARK  197  A    between atoms: _483  and  _484
REMARK  198  A    between atoms: _483  and  _486
REMARK  199  A    between atoms: _486  and  _487
REMARK  200  A    between atoms: _490  and  _492
REMARK  201  A    between atoms: _492  and  _493
REMARK  202  A    between atoms: _492  and  _495
REMARK  203  A    between atoms: _498  and  _500
REMARK  204  A    between atoms: _500  and  _501
REMARK  205  A    between atoms: _500  and  _503
REMARK  206  A    between atoms: _503  and  _504
REMARK  207  A    between atoms: _504  and  _505
REMARK  208  A    between atoms: _505  and  _506
REMARK  209  A    between atoms: _506  and  _507
REMARK  210  A    between atoms: _511  and  _513
REMARK  211  A    between atoms: _513  and  _514
REMARK  212  A    between atoms: _513  and  _516
REMARK  213  A    between atoms: _516  and  _517
REMARK  214  A    between atoms: _520  and  _522
REMARK  215  A    between atoms: _522  and  _523
REMARK  216  A    between atoms: _522  and  _525
REMARK  217  A    between atoms: _525  and  _526
REMARK  218  A    between atoms: _529  and  _531
REMARK  219  A    between atoms: _531  and  _532
REMARK  220  A    between atoms: _531  and  _534
REMARK  221  A    between atoms: _534  and  _535
REMARK  222  A    between atoms: _538  and  _540
REMARK  223  A    between atoms: _540  and  _541
REMARK  224  A    between atoms: _540  and  _543
REMARK  225  A    between atoms: _543  and  _544
REMARK  226  A    between atoms: _550  and  _552
REMARK  227  A    between atoms: _552  and  _553
REMARK  228  A    between atoms: _555  and  _557
REMARK  229  A    between atoms: _557  and  _558
REMARK  230  A    between atoms: _557  and  _560
REMARK  231  A    between atoms: _560  and  _561
REMARK  232  A    between atoms: _564  and  _566
REMARK  233  A    between atoms: _566  and  _567
REMARK  234  A    between atoms: _570  and  _572
REMARK  235  A    between atoms: _572  and  _573
REMARK  236  A    between atoms: _572  and  _575
REMARK  237  A    between atoms: _575  and  _576
REMARK  238  A    between atoms: _586  and  _588
REMARK  239  A    between atoms: _588  and  _589
REMARK  240  A    between atoms: _588  and  _591
REMARK  241  A    between atoms: _591  and  _592
REMARK  242  A    between atoms: _592  and  _593
REMARK  243  A    between atoms: _596  and  _598
REMARK  244  A    between atoms: _598  and  _599
REMARK  245  A    between atoms: _601  and  _603
REMARK  246  A    between atoms: _603  and  _604
REMARK  247  A    between atoms: _603  and  _606
REMARK  248  A    between atoms: _606  and  _607
REMARK  249  A    between atoms: _610  and  _612
REMARK  250  A    between atoms: _612  and  _613
REMARK  251  A    between atoms: _612  and  _615
REMARK  252  A    between atoms: _615  and  _616
REMARK  253  A    between atoms: _616  and  _617
REMARK                            x       y       z     vdW  Elec       q    Type
REMARK                         _______ _______ _______ _____ _____    ______ ____
ROOT
ATOM      1  CA  ARG A   3       9.683  39.875  44.743  0.00  0.00    +0.149 C 
ENDROOT
BRANCH   1   4
ATOM      2  C   CYS A   2      11.035  40.695  42.890  0.00  0.00    +0.242 C 
ATOM      3  O   CYS A   2      11.782  41.312  43.640  0.00  0.00    -0.273 OA
ATOM      4  N   ARG A   3      10.010  39.972  43.325  0.00  0.00    -0.297 N 
ATOM      5  H   ARG A   3       9.424  39.460  42.635  0.00  0.00    +0.150 HD
BRANCH   2   6
ATOM      6  CA  CYS A   2      11.252  40.718  41.388  0.00  0.00    +0.160 C 
BRANCH   6   9
ATOM      7  C   VAL A   1      10.922  43.090  41.035  0.00  0.00    +0.238 C 
ATOM      8  O   VAL A   1       9.748  43.007  41.378  0.00  0.00    -0.274 OA
ATOM      9  N   CYS A   2      11.724  42.032  40.987  0.00  0.00    -0.297 N 
ATOM     10  H   CYS A   2      12.704  42.146  40.658  0.00  0.00    +0.150 HD
BRANCH   7  11
ATOM     11  CA  VAL A   1      11.526  44.441  40.620  0.00  0.00    +0.145 C 
BRANCH  11  12
ATOM     12  CB  VAL A   1      11.670  45.329  41.887  0.00  0.00    +0.025 C 
ATOM     13  CG2 VAL A   1      12.536  44.633  42.913  0.00  0.00    +0.002 C 
ATOM     14  CG1 VAL A   1      12.247  46.696  41.514  0.00  0.00    +0.002 C 
ENDBRANCH  11  12
BRANCH  11  15
ATOM     15  N   VAL A   1      10.709  45.119  39.622  0.00  0.00    -0.238 NA
ATOM     16  H   VAL A   1       9.686  45.205  39.785  0.00  0.00    +0.142 HD
ENDBRANCH  11  15
ENDBRANCH   7  11
ENDBRANCH   6   9
BRANCH   6  17
ATOM     17  CB  CYS A   2      12.253  39.635  40.999  0.00  0.00    +0.098 C 
ATOM     18  SG  CYS A   2      12.073  39.276  39.239  0.00  0.00    -0.080 S 
ENDBRANCH   6  17
ENDBRANCH   2   6
ENDBRANCH   1   4
BRANCH   1  19
ATOM     19  C   ARG A   3       9.875  38.453  45.265  0.00  0.00    +0.241 C 
ATOM     20  N   LEU A   4      10.407  38.336  46.475  0.00  0.00    -0.297 N 
ATOM     21  H   LEU A   4      10.674  39.194  46.999  0.00  0.00    +0.150 HD
ATOM     22  O   ARG A   3       9.560  37.480  44.580  0.00  0.00    -0.273 OA
BRANCH  20  23
ATOM     23  CA  LEU A   4      10.625  37.033  47.085  0.00  0.00    +0.149 C 
BRANCH  23  24
ATOM     24  C   LEU A   4       9.265  36.576  47.605  0.00  0.00    +0.241 C 
ATOM     25  O   LEU A   4       8.585  37.334  48.294  0.00  0.00    -0.273 OA
ATOM     26  N   LEU A   5       8.854  35.359  47.258  0.00  0.00    -0.297 N 
ATOM     27  H   LEU A   5       9.463  34.768  46.657  0.00  0.00    +0.150 HD
BRANCH  26  28
ATOM     28  CA  LEU A   5       7.560  34.835  47.706  0.00  0.00    +0.149 C 
BRANCH  28  29
ATOM     29  C   LEU A   5       7.662  34.077  49.023  0.00  0.00    +0.241 C 
ATOM     30  O   LEU A   5       6.738  34.099  49.834  0.00  0.00    -0.273 OA
ATOM     31  N   GLY A   6       8.781  33.387  49.224  0.00  0.00    -0.296 N 
ATOM     32  H   GLY A   6       9.532  33.396  48.505  0.00  0.00    +0.150 HD
BRANCH  31  33
ATOM     33  CA  GLY A   6       8.956  32.624  50.441  0.00  0.00    +0.163 C 
BRANCH  33  34
ATOM     34  C   GLY A   6      10.359  32.095  50.608  0.00  0.00    +0.229 C 
ATOM     35  O   GLY A   6      11.184  32.181  49.706  0.00  0.00    -0.286 OA
ENDBRANCH  33  34
ENDBRANCH  31  33
ENDBRANCH  28  29
BRANCH  28  36
ATOM     36  CB  LEU A   5       6.960  33.886  46.670  0.00  0.00    +0.029 C 
BRANCH  36  37
ATOM     37  CG  LEU A   5       6.704  34.611  45.356  0.00  0.00    +0.002 C 
ATOM     38  CD2 LEU A   5       5.759  35.790  45.564  0.00  0.00    +0.000 C 
ATOM     39  CD1 LEU A   5       6.108  33.609  44.372  0.00  0.00    +0.000 C 
ENDBRANCH  36  37
ENDBRANCH  28  36
ENDBRANCH  26  28
ENDBRANCH  23  24
BRANCH  23  40
ATOM     40  CB  LEU A   4      11.622  37.163  48.240  0.00  0.00    +0.029 C 
BRANCH  40  41
ATOM     41  CG  LEU A   4      12.115  35.777  48.672  0.00  0.00    +0.002 C 
ATOM     42  CD2 LEU A   4      12.988  35.933  49.901  0.00  0.00    +0.000 C 
ATOM     43  CD1 LEU A   4      12.905  35.106  47.549  0.00  0.00    +0.000 C 
ENDBRANCH  40  41
ENDBRANCH  23  40
ENDBRANCH  20  23
ENDBRANCH   1  19
BRANCH   1  44
ATOM     44  CB  ARG A   3       8.233  40.326  44.951  0.00  0.00    +0.033 C 
BRANCH  44  45
ATOM     45  CG  ARG A   3       7.783  40.058  46.364  0.00  0.00    +0.045 C 
BRANCH  45  46
ATOM     46  CD  ARG A   3       6.353  40.577  46.537  0.00  0.00    +0.174 C 
BRANCH  46  47
ATOM     47  NE  ARG A   3       5.897  40.263  47.887  0.00  0.00    -0.265 N 
ATOM     48  HE  ARG A   3       5.784  41.049  48.559  0.00  0.00    +0.259 HD
ATOM     49  CZ  ARG A   3       5.617  39.033  48.311  0.00  0.00    +0.342 C 
ATOM     50  NH2 ARG A   3       5.245  38.827  49.567  0.00  0.00    -0.292 N 
ATOM     51 HH21 ARG A   3       5.171  39.629  50.226  0.00  0.00    +0.255 HD
ATOM     52 HH22 ARG A   3       5.027  37.864  49.894  0.00  0.00    +0.255 HD
ATOM     53  NH1 ARG A   3       5.737  38.004  47.483  0.00  0.00    -0.292 N 
ATOM     54 HH11 ARG A   3       5.518  37.042  47.813  0.00  0.00    +0.255 HD
ATOM     55 HH12 ARG A   3       6.050  38.159  46.503  0.00  0.00    +0.255 HD
ENDBRANCH  46  47
ENDBRANCH  45  46
ENDBRANCH  44  45
ENDBRANCH   1  44
TORSDOF 22
REMARK  Name = ../refined-set-2016/1xkk/1xkk_pocket.pdb
REMARK  253 active torsions:
REMARK  status: ('A' for Active; 'I' for Inactive)
REMARK    1  A    between atoms: _1  and  _3
REMARK    2  A    between atoms: _3  and  _4
REMARK    3  A    between atoms: _3  and  _6
REMARK    4  A    between atoms: _9  and  _11
REMARK    5  A    between atoms: _11  and  _12
REMARK    6  A    between atoms: _11  and  _14
REMARK    7  A    between atoms: _14  and  _15
REMARK    8  A    between atoms: _18  and  _20
REMARK    9  A    between atoms: _20  and  _21
REMARK   10  A    between atoms: _23  and  _25
REMARK   11  A    between atoms: _25  and  _26
REMARK   12  A    between atoms: _25  and  _28
REMARK   13  A    between atoms: _28  and  _29
REMARK   14  A    between atoms: _31  and  _33
REMARK   15  A    between atoms: _33  and  _34
REMARK   16  A    between atoms: _36  and  _38
REMARK   17  A    between atoms: _38  and  _39
REMARK   18  A    between atoms: _38  and  _41
REMARK   19  A    between atoms: _41  and  _42
REMARK   20  A    between atoms: _48  and  _50
REMARK   21  A    between atoms: _50  and  _51
REMARK   22  A    between atoms: _50  and  _53
REMARK   23  A    between atoms: _53  and  _54
REMARK   24  A    between atoms: _57  and  _59
REMARK   25  A    between atoms: _59  and  _60
REMARK   26  A    between atoms: _59  and  _62
REMARK   27  A    between atoms: _65  and  _67
REMARK   28  A    between atoms: _67  and  _68
REMARK   29  A    between atoms: _67  and  _70
REMARK   30  A    between atoms: _70  and  _71
REMARK   31  A    between atoms: _76  and  _77
REMARK   32  A    between atoms: _79  and  _81
REMARK   33  A    between atoms: _81  and  _82
REMARK   34  A    between atoms: _81  and  _84
REMARK   35  A    between atoms: _84  and  _85
REMARK   36  A    between atoms: _85  and  _86
REMARK   37  A    between atoms: _86  and  _87
REMARK   38  A    between atoms: _87  and  _88
REMARK   39  A    between atoms: _92  and  _94
REMARK   40  A    between atoms: _94  and  _95
REMARK   41  A    between atoms: _98  and  _99
REMARK   42  A    between atoms: _104  and  _106
REMARK   43  A    between atoms: _106  and  _107
REMARK   44  A    between atoms: _106  and  _109
REMARK   45  A    between atoms: _112  and  _114
REMARK   46  A    between atoms: _114  and  _115
REMARK   47  A    between atoms: _118  and  _120
REMARK   48  A    between atoms: _120  and  _121
REMARK   49  A    between atoms: _120  and  _123
REMARK   50  A    between atoms: _123  and  _124
REMARK   51  A    between atoms: _127  and  _129
REMARK   52  A    between atoms: _129  and  _130
REMARK   53  A    between atoms: _129  and  _132
REMARK   54  A    between atoms: _132  and  _133
REMARK   55  A    between atoms: _133  and  _134
REMARK   56  A    between atoms: _134  and  _135
REMARK   57  A    between atoms: _135  and  _136
REMARK   58  A    between atoms: _140  and  _142
REMARK   59  A    between atoms: _142  and  _143
REMARK   60  A    between atoms: _142  and  _145
REMARK   61  A    between atoms: _145  and  _146
REMARK   62  A    between atoms: _146  and  _147
REMARK   63  A    between atoms: _150  and  _152
REMARK   64  A    between atoms: _152  and  _153
REMARK   65  A    between atoms: _152  and  _155
REMARK   66  A    between atoms: _155  and  _156
REMARK   67  A    between atoms: _159  and  _161
REMARK   68  A    between atoms: _161  and  _162
REMARK   69  A    between atoms: _161  and  _164
REMARK   70  A    between atoms: _164  and  _165
REMARK   71  A    between atoms: _165  and  _166
REMARK   72  A    between atoms: _169  and  _171
REMARK   73  A    between atoms: _171  and  _172
REMARK   74  A    between atoms: _175  and  _177
REMARK   75  A    between atoms: _177  and  _178
REMARK   76  A    between atoms: _177  and  _180
REMARK   77  A    between atoms: _183  and  _185
REMARK   78  A    between atoms: _185  and  _186
REMARK   79  A    between atoms: _185  and  _188
REMARK   80  A    between atoms: _188  and  _189
REMARK   81  A    between atoms: _189  and  _190
REMARK   82  A    between atoms: _192  and  _194
REMARK   83  A    between atoms: _194  and  _195
REMARK   84  A    between atoms: _198  and  _200
REMARK   85  A    between atoms: _200  and  _201
REMARK   86  A    between atoms: _200  and  _203
REMARK   87  A    between atoms: _206  and  _208
REMARK   88  A    between atoms: _208  and  _209
REMARK   89  A    between atoms: _208  and  _211
REMARK   90  A    between atoms: _214  and  _216
REMARK   91  A    between atoms: _216  and  _217
REMARK   92  A    between atoms: _216  and  _219
REMARK   93  A    between atoms: _221  and  _223
REMARK   94  A    between atoms: _223  and  _224
REMARK   95  A    between atoms: _223  and  _226
REMARK   96  A    between atoms: _226  and  _227
REMARK   97  A    between atoms: _227  and  _228
REMARK   98  A    between atoms: _228  and  _229
REMARK   99  A    between atoms: _238  and  _240
REMARK  100  A    between atoms: _240  and  _241
REMARK  101  A    between atoms: _240  and  _243
REMARK  102  A    between atoms: _243  and  _244
REMARK  103  A    between atoms: _247  and  _249
REMARK  104  A    between atoms: _249  and  _250
REMARK  105  A    between atoms: _249  and  _252
REMARK  106  A    between atoms: _252  and  _253
REMARK  107  A    between atoms: _256  and  _258
REMARK  108  A    between atoms: _258  and  _259
REMARK  109  A    between atoms: _261  and  _263
REMARK  110  A    between atoms: _263  and  _264
REMARK  111  A    between atoms: _263  and  _266
REMARK  112  A    between atoms: _266  and  _267
REMARK  113  A    between atoms: _267  and  _268
REMARK  114  A    between atoms: _273  and  _275
REMARK  115  A    between atoms: _275  and  _276
REMARK  116  A    between atoms: _275  and  _278
REMARK  117  A    between atoms: _278  and  _279
REMARK  118  A    between atoms: _282  and  _284
REMARK  119  A    between atoms: _284  and  _285
REMARK  120  A    between atoms: _284  and  _287
REMARK  121  A    between atoms: _287  and  _288
REMARK  122  A    between atoms: _291  and  _293
REMARK  123  A    between atoms: _293  and  _294
REMARK  124  A    between atoms: _293  and  _296
REMARK  125  A    between atoms: _296  and  _297
REMARK  126  A    between atoms: _300  and  _302
REMARK  127  A    between atoms: _302  and  _303
REMARK  128  A    between atoms: _302  and  _305
REMARK  129  A    between atoms: _305  and  _306
REMARK  130  A    between atoms: _306  and  _307
REMARK  131  A    between atoms: _312  and  _314
REMARK  132  A    between atoms: _314  and  _315
REMARK  133  A    between atoms: _314  and  _317
REMARK  134  A    between atoms: _317  and  _318
REMARK  135  A    between atoms: _321  and  _323
REMARK  136  A    between atoms: _323  and  _324
REMARK  137  A    between atoms: _323  and  _326
REMARK  138  A    between atoms: _326  and  _327
REMARK  139  A    between atoms: _327  and  _328
REMARK  140  A    between atoms: _331  and  _332
REMARK  141  A    between atoms: _337  and  _339
REMARK  142  A    between atoms: _339  and  _340
REMARK  143  A    between atoms: _339  and  _342
REMARK  144  A    between atoms: _342  and  _343
REMARK  145  A    between atoms: _349  and  _351
REMARK  146  A    between atoms: _351  and  _352
REMARK  147  A    between atoms: _354  and  _356
REMARK  148  A    between atoms: _356  and  _357
REMARK  149  A    between atoms: _356  and  _359
REMARK  150  A    between atoms: _361  and  _363
REMARK  151  A    between atoms: _363  and  _364
REMARK  152  A    between atoms: _363  and  _366
REMARK  153  A    between atoms: _366  and  _367
REMARK  154  A    between atoms: _370  and  _372
REMARK  155  A    between atoms: _372  and  _373
REMARK  156  A    between atoms: _372  and  _375
REMARK  157  A    between atoms: _375  and  _376
REMARK  158  A    between atoms: _379  and  _381
REMARK  159  A    between atoms: _381  and  _382
REMARK  160  A    between atoms: _381  and  _384
REMARK  161  A    between atoms: _384  and  _385
REMARK  162  A    between atoms: _388  and  _390
REMARK  163  A    between atoms: _390  and  _391
REMARK  164  A    between atoms: _390  and  _393
REMARK  165  A    between atoms: _393  and  _394
REMARK  166  A    between atoms: _399  and  _400
REMARK  167  A    between atoms: _402  and  _404
REMARK  168  A    between atoms: _404  and  _405
REMARK  169  A    between atoms: _404  and  _407
REMARK  170  A    between atoms: _407  and  _408
REMARK  171  A    between atoms: _408  and  _409
REMARK  172  A    between atoms: _409  and  _410
REMARK  173  A    between atoms: _419  and  _421
REMARK  174  A    between atoms: _421  and  _422
REMARK  175  A    between atoms: _421  and  _424
REMARK  176  A    between atoms: _424  and  _425
REMARK  177  A    between atoms: _428  and  _430
REMARK  178  A    between atoms: _430  and  _431
REMARK  179  A    between atoms: _430  and  _433
REMARK  180  A    between atoms: _433  and  _434
REMARK  181  A    between atoms: _439  and  _441
REMARK  182  A    between atoms: _441  and  _442
REMARK  183  A    between atoms: _445  and  _447
REMARK  184  A    between atoms: _447  and  _448
REMARK  185  A    between atoms: _447  and  _450
REMARK  186  A    between atoms: _450  and  _451
REMARK  187  A    between atoms: _451  and  _452
REMARK  188  A    between atoms: _452  and  _453
REMARK  189  A    between atoms: _462  and  _464
REMARK  190  A    between atoms: _464  and  _465
REMARK  191  A    between atoms: _464  and  _467
REMARK  192  A    between atoms: _467  and  _468
REMARK  193  A    between atoms: _473  and  _475
REMARK  194  A    between atoms: _475  and  _476
REMARK  195  A    between atoms: _475  and  _478
REMARK  196  A    between atoms: _481  and  _483
REMARK  197  A    between atoms: _483  and  _484
REMARK  198  A    between atoms: _483  and  _486
REMARK  199  A    between atoms: _486  and  _487
REMARK  200  A    between atoms: _490  and  _492
REMARK  201  A    between atoms: _492  and  _493
REMARK  202  A    between atoms: _492  and  _495
REMARK  203  A    between atoms: _498  and  _500
REMARK  204  A    between atoms: _500  and  _501
REMARK  205  A    between atoms: _500  and  _503
REMARK  206  A    between atoms: _503  and  _504
REMARK  207  A    between atoms: _504  and  _505
REMARK  208  A    between atoms: _505  and  _506
REMARK  209  A    between atoms: _506  and  _507
REMARK  210  A    between atoms: _511  and  _513
REMARK  211  A    between atoms: _513  and  _514
REMARK  212  A    between atoms: _513  and  _516
REMARK  213  A    between atoms: _516  and  _517
REMARK  214  A    between atoms: _520  and  _522
REMARK  215  A    between atoms: _522  and  _523
REMARK  216  A    between atoms: _522  and  _525
REMARK  217  A    between atoms: _525  and  _526
REMARK  218  A    between atoms: _529  and  _531
REMARK  219  A    between atoms: _531  and  _532
REMARK  220  A    between atoms: _531  and  _534
REMARK  221  A    between atoms: _534  and  _535
REMARK  222  A    between atoms: _538  and  _540
REMARK  223  A    between atoms: _540  and  _541
REMARK  224  A    between atoms: _540  and  _543
REMARK  225  A    between atoms: _543  and  _544
REMARK  226  A    between atoms: _550  and  _552
REMARK  227  A    between atoms: _552  and  _553
REMARK  228  A    between atoms: _555  and  _557
REMARK  229  A    between atoms: _557  and  _558
REMARK  230  A    between atoms: _557  and  _560
REMARK  231  A    between atoms: _560  and  _561
REMARK  232  A    between atoms: _564  and  _566
REMARK  233  A    between atoms: _566  and  _567
REMARK  234  A    between atoms: _570  and  _572
REMARK  235  A    between atoms: _572  and  _573
REMARK  236  A    between atoms: _572  and  _575
REMARK  237  A    between atoms: _575  and  _576
REMARK  238  A    between atoms: _586  and  _588
REMARK  239  A    between atoms: _588  and  _589
REMARK  240  A    between atoms: _588  and  _591
REMARK  241  A    between atoms: _591  and  _592
REMARK  242  A    between atoms: _592  and  _593
REMARK  243  A    between atoms: _596  and  _598
REMARK  244  A    between atoms: _598  and  _599
REMARK  245  A    between atoms: _601  and  _603
REMARK  246  A    between atoms: _603  and  _604
REMARK  247  A    between atoms: _603  and  _606
REMARK  248  A    between atoms: _606  and  _607
REMARK  249  A    between atoms: _610  and  _612
REMARK  250  A    between atoms: _612  and  _613
REMARK  251  A    between atoms: _612  and  _615
REMARK  252  A    between atoms: _615  and  _616
REMARK  253  A    between atoms: _616  and  _617
REMARK                            x       y       z     vdW  Elec       q    Type
REMARK                         _______ _______ _______ _____ _____    ______ ____
ROOT
ATOM      1  C   MET A   7      10.094  33.555  33.568  0.00  0.00    +0.244 C 
ATOM      2  O   MET A   7      11.194  33.135  33.209  0.00  0.00    -0.273 OA
ATOM      3  N   PRO A   8       8.973  33.294  32.875  0.00  0.00    -0.272 N 
ATOM      4  CD  PRO A   8       7.679  33.944  33.177  0.00  0.00    +0.094 C 
ATOM      5  CG  PRO A   8       6.984  33.971  31.828  0.00  0.00    +0.024 C 
ATOM      6  CB  PRO A   8       7.416  32.670  31.251  0.00  0.00    +0.031 C 
ATOM      7  CA  PRO A   8       8.874  32.483  31.655  0.00  0.00    +0.152 C 
ENDROOT
BRANCH   7   8
ATOM      8  C   PRO A   8       9.850  32.718  30.499  0.00  0.00    +0.241 C 
ATOM      9  N   PHE A   9      10.401  33.916  30.377  0.00  0.00    -0.297 N 
ATOM     10  H   PHE A   9      10.173  34.670  31.056  0.00  0.00    +0.150 HD
ATOM     11  O   PRO A   8      10.119  31.801  29.718  0.00  0.00    -0.273 OA
BRANCH   9  12
ATOM     12  CA  PHE A   9      11.332  34.168  29.279  0.00  0.00    +0.153 C 
BRANCH  12  13
ATOM     13  C   PHE A   9      12.814  34.102  29.656  0.00  0.00    +0.241 C 
ATOM     14  N   GLY A  10      13.101  33.713  30.892  0.00  0.00    -0.295 N 
ATOM     15  H   GLY A  10      12.333  33.484  31.555  0.00  0.00    +0.150 HD
ATOM     16  O   PHE A   9      13.682  34.385  28.836  0.00  0.00    -0.273 OA
BRANCH  14  17
ATOM     17  CA  GLY A  10      14.483  33.606  31.321  0.00  0.00    +0.176 C 
BRANCH  17  18
ATOM     18  C   GLY A  10      15.117  34.953  31.585  0.00  0.00    +0.243 C 
ATOM     19  O   GLY A  10      14.401  35.929  31.803  0.00  0.00    -0.273 OA
ATOM     20  N   CYS A  11      16.449  35.025  31.566  0.00  0.00    -0.296 N 
ATOM     21  H   CYS A  11      17.016  34.177  31.366  0.00  0.00    +0.150 HD
BRANCH  20  22
ATOM     22  CA  CYS A  11      17.105  36.301  31.828  0.00  0.00    +0.160 C 
BRANCH  22  23
ATOM     23  C   CYS A  11      17.348  37.127  30.577  0.00  0.00    +0.242 C 
ATOM     24  N   LEU A  12      17.358  38.440  30.767  0.00  0.00    -0.297 N 
ATOM     25  H   LEU A  12      17.228  38.804  31.732  0.00  0.00    +0.150 HD
ATOM     26  O   CYS A  11      17.519  36.599  29.478  0.00  0.00    -0.273 OA
BRANCH  24  27
ATOM     27  CA  LEU A  12      17.543  39.391  29.683  0.00  0.00    +0.149 C 
BRANCH  27  28
ATOM     28  C   LEU A  12      18.797  39.135  28.861  0.00  0.00    +0.241 C 
ATOM     29  N   LEU A  13      19.883  38.737  29.518  0.00  0.00    -0.297 N 
ATOM     30  H   LEU A  13      19.840  38.613  30.550  0.00  0.00    +0.150 HD
ATOM     31  O   LEU A  12      18.778  39.292  27.643  0.00  0.00    -0.273 OA
BRANCH  29  32
ATOM     32  CA  LEU A  13      21.133  38.471  28.814  0.00  0.00    +0.149 C 
BRANCH  32  33
ATOM     33  C   LEU A  13      20.934  37.446  27.694  0.00  0.00    +0.241 C 
ATOM     34  N   ASP A  14      20.480  36.242  28.029  0.00  0.00    -0.297 N 
ATOM     35  H   ASP A  14      20.278  36.020  29.025  0.00  0.00    +0.150 HD
ATOM     36  O   LEU A  13      21.179  37.750  26.529  0.00  0.00    -0.273 OA
BRANCH  34  37
ATOM     37  CA  ASP A  14      20.265  35.228  26.993  0.00  0.00    +0.160 C 
BRANCH  37  38
ATOM     38  C   ASP A  14      19.214  35.669  25.985  0.00  0.00    +0.241 C 
ATOM     39  N   TYR A  15      18.244  36.456  26.437  0.00  0.00    -0.298 N 
ATOM     40  H   TYR A  15      18.233  36.735  27.439  0.00  0.00    +0.150 HD
ATOM     41  O   ASP A  14      19.282  35.309  24.814  0.00  0.00    -0.273 OA
BRANCH  39  42
ATOM     42  CA  TYR A  15      17.197  36.932  25.545  0.00  0.00    +0.141 C 
BRANCH  42  43
ATOM     43  C   TYR A  15      17.751  37.786  24.404  0.00  0.00    +0.227 C 
ATOM     44  O   TYR A  15      17.464  37.525  23.238  0.00  0.00    -0.286 OA
ENDBRANCH  42  43
BRANCH  42  45
ATOM     45  CB  TYR A  15      16.161  37.744  26.317  0.00  0.00    +0.054 C 
BRANCH  45  46
ATOM     46  CG  TYR A  15      14.932  37.920  25.453  0.00  0.00    -0.020 A 
ATOM     47  CD2 TYR A  15      13.902  36.973  25.467  0.00  0.00    -0.001 A 
ATOM     48  CE2 TYR A  15      12.771  37.127  24.673  0.00  0.00    +0.036 A 
ATOM     49  CZ  TYR A  15      12.664  38.241  23.843  0.00  0.00    +0.134 A 
ATOM     50  CE1 TYR A  15      13.675  39.193  23.812  0.00  0.00    +0.036 A 
ATOM     51  CD1 TYR A  15      14.800  39.027  24.616  0.00  0.00    -0.001 A 
BRANCH  49  52
ATOM     52  OH  TYR A  15      11.562  38.394  23.025  0.00  0.00    -0.506 OA
ATOM     53  HH  TYR A  15      10.940  37.637  23.166  0.00  0.00    +0.292 HD
ENDBRANCH  49  52
ENDBRANCH  45  46
ENDBRANCH  42  45
ENDBRANCH  39  42
ENDBRANCH  37  38
BRANCH  37  54
ATOM     54  CB  ASP A  14      19.848  33.880  27.604  0.00  0.00    +0.143 C 
BRANCH  54  55
ATOM     55  CG  ASP A  14      20.991  33.320  28.451  0.00  0.00    +0.367 C 
ATOM     56  OD2 ASP A  14      20.708  32.724  29.515  0.00  0.00    -0.246 OA
ATOM     57  OD1 ASP A  14      22.171  33.469  28.049  0.00  0.00    -0.246 OA
ENDBRANCH  54  55
ENDBRANCH  37  54
ENDBRANCH  34  37
ENDBRANCH  32  33
BRANCH  32  58
ATOM     58  CB  LEU A  13      22.203  37.990  29.807  0.00  0.00    +0.029 C 
BRANCH  58  59
ATOM     59  CG  LEU A  13      23.543  37.743  29.096  0.00  0.00    +0.002 C 
ATOM     60  CD2 LEU A  13      24.543  37.258  30.116  0.00  0.00    +0.000 C 
ATOM     61  CD1 LEU A  13      24.058  39.004  28.427  0.00  0.00    +0.000 C 
ENDBRANCH  58  59
ENDBRANCH  32  58
ENDBRANCH  29  32
ENDBRANCH  27  28
BRANCH  27  62
ATOM     62  CB  LEU A  12      17.557  40.822  30.247  0.00  0.00    +0.029 C 
BRANCH  62  63
ATOM     63  CG  LEU A  12      17.374  41.845  29.111  0.00  0.00    +0.002 C 
ATOM     64  CD2 LEU A  12      17.105  43.218  29.713  0.00  0.00    +0.000 C 
ATOM     65  CD1 LEU A  12      16.216  41.452  28.201  0.00  0.00    +0.000 C 
ENDBRANCH  62  63
ENDBRANCH  27  62
ENDBRANCH  24  27
ENDBRANCH  22  23
BRANCH  22  66
ATOM     66  CB  CYS A  11      18.414  36.104  32.594  0.00  0.00    +0.098 C 
ATOM     67  SG  CYS A  11      19.603  35.258  31.581  0.00  0.00    -0.080 S 
ENDBRANCH  22  66
ENDBRANCH  20  22
ENDBRANCH  17  18
ENDBRANCH  14  17
ENDBRANCH  12  13
BRANCH  12  68
ATOM     68  CB  PHE A   9      10.999  35.505  28.624  0.00  0.00    +0.055 C 
BRANCH  68  69
ATOM     69  CG  PHE A   9       9.718  35.340  27.856  0.00  0.00    -0.020 A 
ATOM     70  CD2 PHE A   9       8.492  35.551  28.471  0.00  0.00    -0.004 A 
ATOM     71  CE2 PHE A   9       7.295  35.354  27.769  0.00  0.00    -0.000 A 
ATOM     72  CZ  PHE A   9       7.327  34.944  26.435  0.00  0.00    -0.000 A 
ATOM     73  CE1 PHE A   9       8.550  34.734  25.813  0.00  0.00    -0.000 A 
ATOM     74  CD1 PHE A   9       9.738  34.932  26.524  0.00  0.00    -0.004 A 
ENDBRANCH  68  69
ENDBRANCH  12  68
ENDBRANCH   9  12
ENDBRANCH   7   8
BRANCH   1  75
ATOM     75  CA  MET A   7       9.946  34.413  34.831  0.00  0.00    +0.150 C 
BRANCH  75  78
ATOM     76  C   LEU A   6       8.953  32.899  36.476  0.00  0.00    +0.241 C 
ATOM     77  O   LEU A   6       7.819  33.127  36.066  0.00  0.00    -0.273 OA
ATOM     78  N   MET A   7      10.035  33.489  35.966  0.00  0.00    -0.297 N 
ATOM     79  H   MET A   7      10.966  33.288  36.384  0.00  0.00    +0.150 HD
BRANCH  76  80
ATOM     80  CA  LEU A   6       9.171  31.925  37.634  0.00  0.00    +0.149 C 
BRANCH  80  83
ATOM     81  C   GLN A   5       8.645  33.293  39.579  0.00  0.00    +0.241 C 
ATOM     82  O   GLN A   5       9.632  34.011  39.405  0.00  0.00    -0.273 OA
ATOM     83  N   LEU A   6       8.341  32.272  38.782  0.00  0.00    -0.297 N 
ATOM     84  H   LEU A   6       7.491  31.708  38.982  0.00  0.00    +0.150 HD
BRANCH  81  85
ATOM     85  CA  GLN A   5       7.699  33.555  40.745  0.00  0.00    +0.149 C 
BRANCH  85  88
ATOM     86  C   THR A   4       9.281  32.979  42.501  0.00  0.00    +0.243 C 
ATOM     87  O   THR A   4       9.439  31.839  42.046  0.00  0.00    -0.273 OA
ATOM     88  N   GLN A   5       8.468  33.873  41.941  0.00  0.00    -0.297 N 
ATOM     89  H   GLN A   5       8.380  34.818  42.366  0.00  0.00    +0.150 HD
BRANCH  86  90
ATOM     90  CA  THR A   4      10.028  33.429  43.760  0.00  0.00    +0.176 C 
BRANCH  90  93
ATOM     91  C   ILE A   3      10.725  32.186  45.726  0.00  0.00    +0.241 C 
ATOM     92  O   ILE A   3      10.341  33.080  46.487  0.00  0.00    -0.273 OA
ATOM     93  N   THR A   4      10.596  32.260  44.408  0.00  0.00    -0.295 N 
ATOM     94  H   THR A   4      10.910  31.460  43.823  0.00  0.00    +0.150 HD
BRANCH  91  95
ATOM     95  CA  ILE A   3      11.382  30.909  46.256  0.00  0.00    +0.149 C 
BRANCH  95  97
ATOM     96  C   LEU A   2      13.660  30.871  47.119  0.00  0.00    +0.241 C 
ATOM     97  N   ILE A   3      12.382  31.221  47.269  0.00  0.00    -0.297 N 
ATOM     98  H   ILE A   3      12.092  31.729  48.129  0.00  0.00    +0.150 HD
ATOM     99  O   LEU A   2      14.083  30.256  46.133  0.00  0.00    -0.273 OA
BRANCH  96 100
ATOM    100  CA  LEU A   2      14.608  31.251  48.250  0.00  0.00    +0.149 C 
BRANCH 100 103
ATOM    101  C   GLN A   1      15.235  29.304  49.582  0.00  0.00    +0.238 C 
ATOM    102  O   GLN A   1      14.405  29.545  50.456  0.00  0.00    -0.274 OA
ATOM    103  N   LEU A   2      15.408  30.065  48.509  0.00  0.00    -0.297 N 
ATOM    104  H   LEU A   2      16.146  29.802  47.825  0.00  0.00    +0.150 HD
BRANCH 101 105
ATOM    105  CA  GLN A   1      16.153  28.096  49.686  0.00  0.00    +0.145 C 
BRANCH 105 106
ATOM    106  N   GLN A   1      16.757  28.060  51.001  0.00  0.00    -0.238 NA
ATOM    107  H   GLN A   1      16.143  28.085  51.840  0.00  0.00    +0.142 HD
ENDBRANCH 105 106
BRANCH 105 108
ATOM    108  CB  GLN A   1      15.359  26.816  49.431  0.00  0.00    +0.036 C 
BRANCH 108 109
ATOM    109  CG  GLN A   1      16.272  25.618  49.601  0.00  0.00    +0.087 C 
BRANCH 109 110
ATOM    110  CD  GLN A   1      15.538  24.370  49.161  0.00  0.00    +0.219 C 
ATOM    111  NE2 GLN A   1      15.095  23.566  50.122  0.00  0.00    -0.329 N 
ATOM    112 HE21 GLN A   1      15.268  23.803  51.120  0.00  0.00    +0.145 HD
ATOM    113 HE22 GLN A   1      14.575  22.699  49.876  0.00  0.00    +0.145 HD
ATOM    114  OE1 GLN A   1      15.361  24.137  47.968  0.00  0.00    -0.275 OA
ENDBRANCH 109 110
ENDBRANCH 108 109
ENDBRANCH 105 108
ENDBRANCH 101 105
ENDBRANCH 100 103
BRANCH 100 115
ATOM    115  CB  LEU A   2      15.508  32.415  47.810  0.00  0.00    +0.029 C 
BRANCH 115 116
ATOM    116  CG  LEU A   2      16.701  32.569  48.767  0.00  0.00    +0.002 C 
ATOM    117  CD2 LEU A   2      16.216  32.990  50.146  0.00  0.00    +0.000 C 
ATOM    118  CD1 LEU A   2      17.680  33.606  48.215  0.00  0.00    +0.000 C 
ENDBRANCH 115 116
ENDBRANCH 100 115
ENDBRANCH  96 100
ENDBRANCH  95  97
BRANCH  95 119
ATOM    119  CB  ILE A   3      10.298  29.951  46.814  0.00  0.00    +0.027 C 
ATOM    120  CG2 ILE A   3       9.231  29.703  45.767  0.00  0.00    +0.002 C 
BRANCH 119 121
ATOM    121  CG1 ILE A   3      10.937  28.619  47.236  0.00  0.00    +0.002 C 
ATOM    122  CD1 ILE A   3      11.448  28.721  48.660  0.00  0.00    +0.000 C 
ENDBRANCH 119 121
ENDBRANCH  95 119
ENDBRANCH  91  95
ENDBRANCH  90  93
BRANCH  90 123
ATOM    123  CB  THR A   4      11.175  34.430  43.396  0.00  0.00    +0.137 C 
ATOM    124  CG2 THR A   4      12.028  33.874  42.252  0.00  0.00    +0.034 C 
BRANCH 123 125
ATOM    125  OG1 THR A   4      10.627  35.697  43.007  0.00  0.00    -0.382 OA
ATOM    126  HG1 THR A   4      10.098  36.070  43.756  0.00  0.00    +0.210 HD
ENDBRANCH 123 125
ENDBRANCH  90 123
ENDBRANCH  86  90
ENDBRANCH  85  88
BRANCH  85 127
ATOM    127  CB  GLN A   5       6.754  34.711  40.402  0.00  0.00    +0.039 C 
BRANCH 127 128
ATOM    128  CG  GLN A   5       5.998  34.378  39.120  0.00  0.00    +0.087 C 
BRANCH 128 129
ATOM    129  CD  GLN A   5       4.983  35.473  38.792  0.00  0.00    +0.219 C 
ATOM    130  NE2 GLN A   5       4.914  36.497  39.632  0.00  0.00    -0.329 N 
ATOM    131 HE21 GLN A   5       5.532  36.526  40.468  0.00  0.00    +0.145 HD
ATOM    132 HE22 GLN A   5       4.242  37.271  39.455  0.00  0.00    +0.145 HD
ATOM    133  OE1 GLN A   5       4.275  35.392  37.791  0.00  0.00    -0.275 OA
ENDBRANCH 128 129
ENDBRANCH 127 128
ENDBRANCH  85 127
ENDBRANCH  81  85
ENDBRANCH  80  83
BRANCH  80 134
ATOM    134  CB  LEU A   6       8.847  30.497  37.186  0.00  0.00    +0.029 C 
BRANCH 134 135
ATOM    135  CG  LEU A   6       9.720  30.061  35.998  0.00  0.00    +0.002 C 
ATOM    136  CD2 LEU A   6      11.201  29.960  36.381  0.00  0.00    +0.000 C 
ATOM    137  CD1 LEU A   6       9.207  28.699  35.521  0.00  0.00    +0.000 C 
ENDBRANCH 134 135
ENDBRANCH  80 134
ENDBRANCH  76  80
ENDBRANCH  75  78
BRANCH  75 138
ATOM    138  CB  MET A   7      11.051  35.471  34.915  0.00  0.00    +0.041 C 
BRANCH 138 139
ATOM    139  CG  MET A   7      10.838  36.339  36.162  0.00  0.00    +0.060 C 
BRANCH 139 140
ATOM    140  SD  MET A   7       9.325  37.348  35.974  0.00  0.00    -0.139 S 
ATOM    141  CE  MET A   7       8.220  36.563  37.131  0.00  0.00    +0.069 C 
ENDBRANCH 139 140
ENDBRANCH 138 139
ENDBRANCH  75 138
ENDBRANCH   1  75
TORSDOF 58
REMARK  Name = ../refined-set-2016/1xkk/1xkk_pocket.pdb
REMARK  253 active torsions:
REMARK  status: ('A' for Active; 'I' for Inactive)
REMARK    1  A    between atoms: _1  and  _3
REMARK    2  A    between atoms: _3  and  _4
REMARK    3  A    between atoms: _3  and  _6
REMARK    4  A    between atoms: _9  and  _11
REMARK    5  A    between atoms: _11  and  _12
REMARK    6  A    between atoms: _11  and  _14
REMARK    7  A    between atoms: _14  and  _15
REMARK    8  A    between atoms: _18  and  _20
REMARK    9  A    between atoms: _20  and  _21
REMARK   10  A    between atoms: _23  and  _25
REMARK   11  A    between atoms: _25  and  _26
REMARK   12  A    between atoms: _25  and  _28
REMARK   13  A    between atoms: _28  and  _29
REMARK   14  A    between atoms: _31  and  _33
REMARK   15  A    between atoms: _33  and  _34
REMARK   16  A    between atoms: _36  and  _38
REMARK   17  A    between atoms: _38  and  _39
REMARK   18  A    between atoms: _38  and  _41
REMARK   19  A    between atoms: _41  and  _42
REMARK   20  A    between atoms: _48  and  _50
REMARK   21  A    between atoms: _50  and  _51
REMARK   22  A    between atoms: _50  and  _53
REMARK   23  A    between atoms: _53  and  _54
REMARK   24  A    between atoms: _57  and  _59
REMARK   25  A    between atoms: _59  and  _60
REMARK   26  A    between atoms: _59  and  _62
REMARK   27  A    between atoms: _65  and  _67
REMARK   28  A    between atoms: _67  and  _68
REMARK   29  A    between atoms: _67  and  _70
REMARK   30  A    between atoms: _70  and  _71
REMARK   31  A    between atoms: _76  and  _77
REMARK   32  A    between atoms: _79  and  _81
REMARK   33  A    between atoms: _81  and  _82
REMARK   34  A    between atoms: _81  and  _84
REMARK   35  A    between atoms: _84  and  _85
REMARK   36  A    between atoms: _85  and  _86
REMARK   37  A    between atoms: _86  and  _87
REMARK   38  A    between atoms: _87  and  _88
REMARK   39  A    between atoms: _92  and  _94
REMARK   40  A    between atoms: _94  and  _95
REMARK   41  A    between atoms: _98  and  _99
REMARK   42  A    between atoms: _104  and  _106
REMARK   43  A    between atoms: _106  and  _107
REMARK   44  A    between atoms: _106  and  _109
REMARK   45  A    between atoms: _112  and  _114
REMARK   46  A    between atoms: _114  and  _115
REMARK   47  A    between atoms: _118  and  _120
REMARK   48  A    between atoms: _120  and  _121
REMARK   49  A    between atoms: _120  and  _123
REMARK   50  A    between atoms: _123  and  _124
REMARK   51  A    between atoms: _127  and  _129
REMARK   52  A    between atoms: _129  and  _130
REMARK   53  A    between atoms: _129  and  _132
REMARK   54  A    between atoms: _132  and  _133
REMARK   55  A    between atoms: _133  and  _134
REMARK   56  A    between atoms: _134  and  _135
REMARK   57  A    between atoms: _135  and  _136
REMARK   58  A    between atoms: _140  and  _142
REMARK   59  A    between atoms: _142  and  _143
REMARK   60  A    between atoms: _142  and  _145
REMARK   61  A    between atoms: _145  and  _146
REMARK   62  A    between atoms: _146  and  _147
REMARK   63  A    between atoms: _150  and  _152
REMARK   64  A    between atoms: _152  and  _153
REMARK   65  A    between atoms: _152  and  _155
REMARK   66  A    between atoms: _155  and  _156
REMARK   67  A    between atoms: _159  and  _161
REMARK   68  A    between atoms: _161  and  _162
REMARK   69  A    between atoms: _161  and  _164
REMARK   70  A    between atoms: _164  and  _165
REMARK   71  A    between atoms: _165  and  _166
REMARK   72  A    between atoms: _169  and  _171
REMARK   73  A    between atoms: _171  and  _172
REMARK   74  A    between atoms: _175  and  _177
REMARK   75  A    between atoms: _177  and  _178
REMARK   76  A    between atoms: _177  and  _180
REMARK   77  A    between atoms: _183  and  _185
REMARK   78  A    between atoms: _185  and  _186
REMARK   79  A    between atoms: _185  and  _188
REMARK   80  A    between atoms: _188  and  _189
REMARK   81  A    between atoms: _189  and  _190
REMARK   82  A    between atoms: _192  and  _194
REMARK   83  A    between atoms: _194  and  _195
REMARK   84  A    between atoms: _198  and  _200
REMARK   85  A    between atoms: _200  and  _201
REMARK   86  A    between atoms: _200  and  _203
REMARK   87  A    between atoms: _206  and  _208
REMARK   88  A    between atoms: _208  and  _209
REMARK   89  A    between atoms: _208  and  _211
REMARK   90  A    between atoms: _214  and  _216
REMARK   91  A    between atoms: _216  and  _217
REMARK   92  A    between atoms: _216  and  _219
REMARK   93  A    between atoms: _221  and  _223
REMARK   94  A    between atoms: _223  and  _224
REMARK   95  A    between atoms: _223  and  _226
REMARK   96  A    between atoms: _226  and  _227
REMARK   97  A    between atoms: _227  and  _228
REMARK   98  A    between atoms: _228  and  _229
REMARK   99  A    between atoms: _238  and  _240
REMARK  100  A    between atoms: _240  and  _241
REMARK  101  A    between atoms: _240  and  _243
REMARK  102  A    between atoms: _243  and  _244
REMARK  103  A    between atoms: _247  and  _249
REMARK  104  A    between atoms: _249  and  _250
REMARK  105  A    between atoms: _249  and  _252
REMARK  106  A    between atoms: _252  and  _253
REMARK  107  A    between atoms: _256  and  _258
REMARK  108  A    between atoms: _258  and  _259
REMARK  109  A    between atoms: _261  and  _263
REMARK  110  A    between atoms: _263  and  _264
REMARK  111  A    between atoms: _263  and  _266
REMARK  112  A    between atoms: _266  and  _267
REMARK  113  A    between atoms: _267  and  _268
REMARK  114  A    between atoms: _273  and  _275
REMARK  115  A    between atoms: _275  and  _276
REMARK  116  A    between atoms: _275  and  _278
REMARK  117  A    between atoms: _278  and  _279
REMARK  118  A    between atoms: _282  and  _284
REMARK  119  A    between atoms: _284  and  _285
REMARK  120  A    between atoms: _284  and  _287
REMARK  121  A    between atoms: _287  and  _288
REMARK  122  A    between atoms: _291  and  _293
REMARK  123  A    between atoms: _293  and  _294
REMARK  124  A    between atoms: _293  and  _296
REMARK  125  A    between atoms: _296  and  _297
REMARK  126  A    between atoms: _300  and  _302
REMARK  127  A    between atoms: _302  and  _303
REMARK  128  A    between atoms: _302  and  _305
REMARK  129  A    between atoms: _305  and  _306
REMARK  130  A    between atoms: _306  and  _307
REMARK  131  A    between atoms: _312  and  _314
REMARK  132  A    between atoms: _314  and  _315
REMARK  133  A    between atoms: _314  and  _317
REMARK  134  A    between atoms: _317  and  _318
REMARK  135  A    between atoms: _321  and  _323
REMARK  136  A    between atoms: _323  and  _324
REMARK  137  A    between atoms: _323  and  _326
REMARK  138  A    between atoms: _326  and  _327
REMARK  139  A    between atoms: _327  and  _328
REMARK  140  A    between atoms: _331  and  _332
REMARK  141  A    between atoms: _337  and  _339
REMARK  142  A    between atoms: _339  and  _340
REMARK  143  A    between atoms: _339  and  _342
REMARK  144  A    between atoms: _342  and  _343
REMARK  145  A    between atoms: _349  and  _351
REMARK  146  A    between atoms: _351  and  _352
REMARK  147  A    between atoms: _354  and  _356
REMARK  148  A    between atoms: _356  and  _357
REMARK  149  A    between atoms: _356  and  _359
REMARK  150  A    between atoms: _361  and  _363
REMARK  151  A    between atoms: _363  and  _364
REMARK  152  A    between atoms: _363  and  _366
REMARK  153  A    between atoms: _366  and  _367
REMARK  154  A    between atoms: _370  and  _372
REMARK  155  A    between atoms: _372  and  _373
REMARK  156  A    between atoms: _372  and  _375
REMARK  157  A    between atoms: _375  and  _376
REMARK  158  A    between atoms: _379  and  _381
REMARK  159  A    between atoms: _381  and  _382
REMARK  160  A    between atoms: _381  and  _384
REMARK  161  A    between atoms: _384  and  _385
REMARK  162  A    between atoms: _388  and  _390
REMARK  163  A    between atoms: _390  and  _391
REMARK  164  A    between atoms: _390  and  _393
REMARK  165  A    between atoms: _393  and  _394
REMARK  166  A    between atoms: _399  and  _400
REMARK  167  A    between atoms: _402  and  _404
REMARK  168  A    between atoms: _404  and  _405
REMARK  169  A    between atoms: _404  and  _407
REMARK  170  A    between atoms: _407  and  _408
REMARK  171  A    between atoms: _408  and  _409
REMARK  172  A    between atoms: _409  and  _410
REMARK  173  A    between atoms: _419  and  _421
REMARK  174  A    between atoms: _421  and  _422
REMARK  175  A    between atoms: _421  and  _424
REMARK  176  A    between atoms: _424  and  _425
REMARK  177  A    between atoms: _428  and  _430
REMARK  178  A    between atoms: _430  and  _431
REMARK  179  A    between atoms: _430  and  _433
REMARK  180  A    between atoms: _433  and  _434
REMARK  181  A    between atoms: _439  and  _441
REMARK  182  A    between atoms: _441  and  _442
REMARK  183  A    between atoms: _445  and  _447
REMARK  184  A    between atoms: _447  and  _448
REMARK  185  A    between atoms: _447  and  _450
REMARK  186  A    between atoms: _450  and  _451
REMARK  187  A    between atoms: _451  and  _452
REMARK  188  A    between atoms: _452  and  _453
REMARK  189  A    between atoms: _462  and  _464
REMARK  190  A    between atoms: _464  and  _465
REMARK  191  A    between atoms: _464  and  _467
REMARK  192  A    between atoms: _467  and  _468
REMARK  193  A    between atoms: _473  and  _475
REMARK  194  A    between atoms: _475  and  _476
REMARK  195  A    between atoms: _475  and  _478
REMARK  196  A    between atoms: _481  and  _483
REMARK  197  A    between atoms: _483  and  _484
REMARK  198  A    between atoms: _483  and  _486
REMARK  199  A    between atoms: _486  and  _487
REMARK  200  A    between atoms: _490  and  _492
REMARK  201  A    between atoms: _492  and  _493
REMARK  202  A    between atoms: _492  and  _495
REMARK  203  A    between atoms: _498  and  _500
REMARK  204  A    between atoms: _500  and  _501
REMARK  205  A    between atoms: _500  and  _503
REMARK  206  A    between atoms: _503  and  _504
REMARK  207  A    between atoms: _504  and  _505
REMARK  208  A    between atoms: _505  and  _506
REMARK  209  A    between atoms: _506  and  _507
REMARK  210  A    between atoms: _511  and  _513
REMARK  211  A    between atoms: _513  and  _514
REMARK  212  A    between atoms: _513  and  _516
REMARK  213  A    between atoms: _516  and  _517
REMARK  214  A    between atoms: _520  and  _522
REMARK  215  A    between atoms: _522  and  _523
REMARK  216  A    between atoms: _522  and  _525
REMARK  217  A    between atoms: _525  and  _526
REMARK  218  A    between atoms: _529  and  _531
REMARK  219  A    between atoms: _531  and  _532
REMARK  220  A    between atoms: _531  and  _534
REMARK  221  A    between atoms: _534  and  _535
REMARK  222  A    between atoms: _538  and  _540
REMARK  223  A    between atoms: _540  and  _541
REMARK  224  A    between atoms: _540  and  _543
REMARK  225  A    between atoms: _543  and  _544
REMARK  226  A    between atoms: _550  and  _552
REMARK  227  A    between atoms: _552  and  _553
REMARK  228  A    between atoms: _555  and  _557
REMARK  229  A    between atoms: _557  and  _558
REMARK  230  A    between atoms: _557  and  _560
REMARK  231  A    between atoms: _560  and  _561
REMARK  232  A    between atoms: _564  and  _566
REMARK  233  A    between atoms: _566  and  _567
REMARK  234  A    between atoms: _570  and  _572
REMARK  235  A    between atoms: _572  and  _573
REMARK  236  A    between atoms: _572  and  _575
REMARK  237  A    between atoms: _575  and  _576
REMARK  238  A    between atoms: _586  and  _588
REMARK  239  A    between atoms: _588  and  _589
REMARK  240  A    between atoms: _588  and  _591
REMARK  241  A    between atoms: _591  and  _592
REMARK  242  A    between atoms: _592  and  _593
REMARK  243  A    between atoms: _596  and  _598
REMARK  244  A    between atoms: _598  and  _599
REMARK  245  A    between atoms: _601  and  _603
REMARK  246  A    between atoms: _603  and  _604
REMARK  247  A    between atoms: _603  and  _606
REMARK  248  A    between atoms: _606  and  _607
REMARK  249  A    between atoms: _610  and  _612
REMARK  250  A    between atoms: _612  and  _613
REMARK  251  A    between atoms: _612  and  _615
REMARK  252  A    between atoms: _615  and  _616
REMARK  253  A    between atoms: _616  and  _617
REMARK                            x       y       z     vdW  Elec       q    Type
REMARK                         _______ _______ _______ _____ _____    ______ ____
ROOT
ATOM      1  NE  ARG A   1      25.332  36.446  25.709  0.00  0.00    -0.265 N 
ATOM      2  CZ  ARG A   1      26.083  35.933  26.675  0.00  0.00    +0.342 C 
ATOM      3  NH2 ARG A   1      27.047  36.663  27.221  0.00  0.00    -0.292 N 
ATOM      4 HH21 ARG A   1      27.637  36.263  27.978  0.00  0.00    +0.255 HD
ATOM      5 HH22 ARG A   1      27.213  37.635  26.892  0.00  0.00    +0.255 HD
ATOM      6  NH1 ARG A   1      25.871  34.691  27.094  0.00  0.00    -0.292 N 
ATOM      7 HH11 ARG A   1      26.460  34.290  27.851  0.00  0.00    +0.255 HD
ATOM      8 HH12 ARG A   1      25.116  34.119  26.665  0.00  0.00    +0.255 HD
ATOM      9  HE  ARG A   1      25.532  37.420  25.406  0.00  0.00    +0.259 HD
ENDROOT
BRANCH   1  10
ATOM     10  CD  ARG A   1      24.246  35.737  25.044  0.00  0.00    +0.174 C 
BRANCH  10  11
ATOM     11  CG  ARG A   1      23.449  36.728  24.216  0.00  0.00    +0.045 C 
BRANCH  11  12
ATOM     12  CB  ARG A   1      22.345  36.006  23.492  0.00  0.00    +0.029 C 
BRANCH  12  13
ATOM     13  CA  ARG A   1      21.591  36.989  22.592  0.00  0.00    +0.133 C 
BRANCH  13  14
ATOM     14  N   ARG A   1      20.691  37.840  23.365  0.00  0.00    -0.239 NA
ATOM     15  H   ARG A   1      20.584  37.685  24.388  0.00  0.00    +0.142 HD
ENDBRANCH  13  14
BRANCH  13  16
ATOM     16  C   ARG A   1      20.803  36.197  21.561  0.00  0.00    +0.224 C 
ATOM     17  O   ARG A   1      21.189  36.134  20.393  0.00  0.00    -0.287 OA
ENDBRANCH  13  16
ENDBRANCH  12  13
ENDBRANCH  11  12
ENDBRANCH  10  11
ENDBRANCH   1  10
TORSDOF 6
REMARK  Name = ../refined-set-2016/1xkk/1xkk_pocket.pdb
REMARK  253 active torsions:
REMARK  status: ('A' for Active; 'I' for Inactive)
REMARK    1  A    between atoms: _1  and  _3
REMARK    2  A    between atoms: _3  and  _4
REMARK    3  A    between atoms: _3  and  _6
REMARK    4  A    between atoms: _9  and  _11
REMARK    5  A    between atoms: _11  and  _12
REMARK    6  A    between atoms: _11  and  _14
REMARK    7  A    between atoms: _14  and  _15
REMARK    8  A    between atoms: _18  and  _20
REMARK    9  A    between atoms: _20  and  _21
REMARK   10  A    between atoms: _23  and  _25
REMARK   11  A    between atoms: _25  and  _26
REMARK   12  A    between atoms: _25  and  _28
REMARK   13  A    between atoms: _28  and  _29
REMARK   14  A    between atoms: _31  and  _33
REMARK   15  A    between atoms: _33  and  _34
REMARK   16  A    between atoms: _36  and  _38
REMARK   17  A    between atoms: _38  and  _39
REMARK   18  A    between atoms: _38  and  _41
REMARK   19  A    between atoms: _41  and  _42
REMARK   20  A    between atoms: _48  and  _50
REMARK   21  A    between atoms: _50  and  _51
REMARK   22  A    between atoms: _50  and  _53
REMARK   23  A    between atoms: _53  and  _54
REMARK   24  A    between atoms: _57  and  _59
REMARK   25  A    between atoms: _59  and  _60
REMARK   26  A    between atoms: _59  and  _62
REMARK   27  A    between atoms: _65  and  _67
REMARK   28  A    between atoms: _67  and  _68
REMARK   29  A    between atoms: _67  and  _70
REMARK   30  A    between atoms: _70  and  _71
REMARK   31  A    between atoms: _76  and  _77
REMARK   32  A    between atoms: _79  and  _81
REMARK   33  A    between atoms: _81  and  _82
REMARK   34  A    between atoms: _81  and  _84
REMARK   35  A    between atoms: _84  and  _85
REMARK   36  A    between atoms: _85  and  _86
REMARK   37  A    between atoms: _86  and  _87
REMARK   38  A    between atoms: _87  and  _88
REMARK   39  A    between atoms: _92  and  _94
REMARK   40  A    between atoms: _94  and  _95
REMARK   41  A    between atoms: _98  and  _99
REMARK   42  A    between atoms: _104  and  _106
REMARK   43  A    between atoms: _106  and  _107
REMARK   44  A    between atoms: _106  and  _109
REMARK   45  A    between atoms: _112  and  _114
REMARK   46  A    between atoms: _114  and  _115
REMARK   47  A    between atoms: _118  and  _120
REMARK   48  A    between atoms: _120  and  _121
REMARK   49  A    between atoms: _120  and  _123
REMARK   50  A    between atoms: _123  and  _124
REMARK   51  A    between atoms: _127  and  _129
REMARK   52  A    between atoms: _129  and  _130
REMARK   53  A    between atoms: _129  and  _132
REMARK   54  A    between atoms: _132  and  _133
REMARK   55  A    between atoms: _133  and  _134
REMARK   56  A    between atoms: _134  and  _135
REMARK   57  A    between atoms: _135  and  _136
REMARK   58  A    between atoms: _140  and  _142
REMARK   59  A    between atoms: _142  and  _143
REMARK   60  A    between atoms: _142  and  _145
REMARK   61  A    between atoms: _145  and  _146
REMARK   62  A    between atoms: _146  and  _147
REMARK   63  A    between atoms: _150  and  _152
REMARK   64  A    between atoms: _152  and  _153
REMARK   65  A    between atoms: _152  and  _155
REMARK   66  A    between atoms: _155  and  _156
REMARK   67  A    between atoms: _159  and  _161
REMARK   68  A    between atoms: _161  and  _162
REMARK   69  A    between atoms: _161  and  _164
REMARK   70  A    between atoms: _164  and  _165
REMARK   71  A    between atoms: _165  and  _166
REMARK   72  A    between atoms: _169  and  _171
REMARK   73  A    between atoms: _171  and  _172
REMARK   74  A    between atoms: _175  and  _177
REMARK   75  A    between atoms: _177  and  _178
REMARK   76  A    between atoms: _177  and  _180
REMARK   77  A    between atoms: _183  and  _185
REMARK   78  A    between atoms: _185  and  _186
REMARK   79  A    between atoms: _185  and  _188
REMARK   80  A    between atoms: _188  and  _189
REMARK   81  A    between atoms: _189  and  _190
REMARK   82  A    between atoms: _192  and  _194
REMARK   83  A    between atoms: _194  and  _195
REMARK   84  A    between atoms: _198  and  _200
REMARK   85  A    between atoms: _200  and  _201
REMARK   86  A    between atoms: _200  and  _203
REMARK   87  A    between atoms: _206  and  _208
REMARK   88  A    between atoms: _208  and  _209
REMARK   89  A    between atoms: _208  and  _211
REMARK   90  A    between atoms: _214  and  _216
REMARK   91  A    between atoms: _216  and  _217
REMARK   92  A    between atoms: _216  and  _219
REMARK   93  A    between atoms: _221  and  _223
REMARK   94  A    between atoms: _223  and  _224
REMARK   95  A    between atoms: _223  and  _226
REMARK   96  A    between atoms: _226  and  _227
REMARK   97  A    between atoms: _227  and  _228
REMARK   98  A    between atoms: _228  and  _229
REMARK   99  A    between atoms: _238  and  _240
REMARK  100  A    between atoms: _240  and  _241
REMARK  101  A    between atoms: _240  and  _243
REMARK  102  A    between atoms: _243  and  _244
REMARK  103  A    between atoms: _247  and  _249
REMARK  104  A    between atoms: _249  and  _250
REMARK  105  A    between atoms: _249  and  _252
REMARK  106  A    between atoms: _252  and  _253
REMARK  107  A    between atoms: _256  and  _258
REMARK  108  A    between atoms: _258  and  _259
REMARK  109  A    between atoms: _261  and  _263
REMARK  110  A    between atoms: _263  and  _264
REMARK  111  A    between atoms: _263  and  _266
REMARK  112  A    between atoms: _266  and  _267
REMARK  113  A    between atoms: _267  and  _268
REMARK  114  A    between atoms: _273  and  _275
REMARK  115  A    between atoms: _275  and  _276
REMARK  116  A    between atoms: _275  and  _278
REMARK  117  A    between atoms: _278  and  _279
REMARK  118  A    between atoms: _282  and  _284
REMARK  119  A    between atoms: _284  and  _285
REMARK  120  A    between atoms: _284  and  _287
REMARK  121  A    between atoms: _287  and  _288
REMARK  122  A    between atoms: _291  and  _293
REMARK  123  A    between atoms: _293  and  _294
REMARK  124  A    between atoms: _293  and  _296
REMARK  125  A    between atoms: _296  and  _297
REMARK  126  A    between atoms: _300  and  _302
REMARK  127  A    between atoms: _302  and  _303
REMARK  128  A    between atoms: _302  and  _305
REMARK  129  A    between atoms: _305  and  _306
REMARK  130  A    between atoms: _306  and  _307
REMARK  131  A    between atoms: _312  and  _314
REMARK  132  A    between atoms: _314  and  _315
REMARK  133  A    between atoms: _314  and  _317
REMARK  134  A    between atoms: _317  and  _318
REMARK  135  A    between atoms: _321  and  _323
REMARK  136  A    between atoms: _323  and  _324
REMARK  137  A    between atoms: _323  and  _326
REMARK  138  A    between atoms: _326  and  _327
REMARK  139  A    between atoms: _327  and  _328
REMARK  140  A    between atoms: _331  and  _332
REMARK  141  A    between atoms: _337  and  _339
REMARK  142  A    between atoms: _339  and  _340
REMARK  143  A    between atoms: _339  and  _342
REMARK  144  A    between atoms: _342  and  _343
REMARK  145  A    between atoms: _349  and  _351
REMARK  146  A    between atoms: _351  and  _352
REMARK  147  A    between atoms: _354  and  _356
REMARK  148  A    between atoms: _356  and  _357
REMARK  149  A    between atoms: _356  and  _359
REMARK  150  A    between atoms: _361  and  _363
REMARK  151  A    between atoms: _363  and  _364
REMARK  152  A    between atoms: _363  and  _366
REMARK  153  A    between atoms: _366  and  _367
REMARK  154  A    between atoms: _370  and  _372
REMARK  155  A    between atoms: _372  and  _373
REMARK  156  A    between atoms: _372  and  _375
REMARK  157  A    between atoms: _375  and  _376
REMARK  158  A    between atoms: _379  and  _381
REMARK  159  A    between atoms: _381  and  _382
REMARK  160  A    between atoms: _381  and  _384
REMARK  161  A    between atoms: _384  and  _385
REMARK  162  A    between atoms: _388  and  _390
REMARK  163  A    between atoms: _390  and  _391
REMARK  164  A    between atoms: _390  and  _393
REMARK  165  A    between atoms: _393  and  _394
REMARK  166  A    between atoms: _399  and  _400
REMARK  167  A    between atoms: _402  and  _404
REMARK  168  A    between atoms: _404  and  _405
REMARK  169  A    between atoms: _404  and  _407
REMARK  170  A    between atoms: _407  and  _408
REMARK  171  A    between atoms: _408  and  _409
REMARK  172  A    between atoms: _409  and  _410
REMARK  173  A    between atoms: _419  and  _421
REMARK  174  A    between atoms: _421  and  _422
REMARK  175  A    between atoms: _421  and  _424
REMARK  176  A    between atoms: _424  and  _425
REMARK  177  A    between atoms: _428  and  _430
REMARK  178  A    between atoms: _430  and  _431
REMARK  179  A    between atoms: _430  and  _433
REMARK  180  A    between atoms: _433  and  _434
REMARK  181  A    between atoms: _439  and  _441
REMARK  182  A    between atoms: _441  and  _442
REMARK  183  A    between atoms: _445  and  _447
REMARK  184  A    between atoms: _447  and  _448
REMARK  185  A    between atoms: _447  and  _450
REMARK  186  A    between atoms: _450  and  _451
REMARK  187  A    between atoms: _451  and  _452
REMARK  188  A    between atoms: _452  and  _453
REMARK  189  A    between atoms: _462  and  _464
REMARK  190  A    between atoms: _464  and  _465
REMARK  191  A    between atoms: _464  and  _467
REMARK  192  A    between atoms: _467  and  _468
REMARK  193  A    between atoms: _473  and  _475
REMARK  194  A    between atoms: _475  and  _476
REMARK  195  A    between atoms: _475  and  _478
REMARK  196  A    between atoms: _481  and  _483
REMARK  197  A    between atoms: _483  and  _484
REMARK  198  A    between atoms: _483  and  _486
REMARK  199  A    between atoms: _486  and  _487
REMARK  200  A    between atoms: _490  and  _492
REMARK  201  A    between atoms: _492  and  _493
REMARK  202  A    between atoms: _492  and  _495
REMARK  203  A    between atoms: _498  and  _500
REMARK  204  A    between atoms: _500  and  _501
REMARK  205  A    between atoms: _500  and  _503
REMARK  206  A    between atoms: _503  and  _504
REMARK  207  A    between atoms: _504  and  _505
REMARK  208  A    between atoms: _505  and  _506
REMARK  209  A    between atoms: _506  and  _507
REMARK  210  A    between atoms: _511  and  _513
REMARK  211  A    between atoms: _513  and  _514
REMARK  212  A    between atoms: _513  and  _516
REMARK  213  A    between atoms: _516  and  _517
REMARK  214  A    between atoms: _520  and  _522
REMARK  215  A    between atoms: _522  and  _523
REMARK  216  A    between atoms: _522  and  _525
REMARK  217  A    between atoms: _525  and  _526
REMARK  218  A    between atoms: _529  and  _531
REMARK  219  A    between atoms: _531  and  _532
REMARK  220  A    between atoms: _531  and  _534
REMARK  221  A    between atoms: _534  and  _535
REMARK  222  A    between atoms: _538  and  _540
REMARK  223  A    between atoms: _540  and  _541
REMARK  224  A    between atoms: _540  and  _543
REMARK  225  A    between atoms: _543  and  _544
REMARK  226  A    between atoms: _550  and  _552
REMARK  227  A    between atoms: _552  and  _553
REMARK  228  A    between atoms: _555  and  _557
REMARK  229  A    between atoms: _557  and  _558
REMARK  230  A    between atoms: _557  and  _560
REMARK  231  A    between atoms: _560  and  _561
REMARK  232  A    between atoms: _564  and  _566
REMARK  233  A    between atoms: _566  and  _567
REMARK  234  A    between atoms: _570  and  _572
REMARK  235  A    between atoms: _572  and  _573
REMARK  236  A    between atoms: _572  and  _575
REMARK  237  A    between atoms: _575  and  _576
REMARK  238  A    between atoms: _586  and  _588
REMARK  239  A    between atoms: _588  and  _589
REMARK  240  A    between atoms: _588  and  _591
REMARK  241  A    between atoms: _591  and  _592
REMARK  242  A    between atoms: _592  and  _593
REMARK  243  A    between atoms: _596  and  _598
REMARK  244  A    between atoms: _598  and  _599
REMARK  245  A    between atoms: _601  and  _603
REMARK  246  A    between atoms: _603  and  _604
REMARK  247  A    between atoms: _603  and  _606
REMARK  248  A    between atoms: _606  and  _607
REMARK  249  A    between atoms: _610  and  _612
REMARK  250  A    between atoms: _612  and  _613
REMARK  251  A    between atoms: _612  and  _615
REMARK  252  A    between atoms: _615  and  _616
REMARK  253  A    between atoms: _616  and  _617
REMARK                            x       y       z     vdW  Elec       q    Type
REMARK                         _______ _______ _______ _____ _____    ______ ____
ROOT
ATOM      1  CA  LEU A   1      15.547  50.154  45.210  0.00  0.00    +0.133 C 
ENDROOT
BRANCH   1   2
ATOM      2  N   LEU A   1      14.682  50.732  44.185  0.00  0.00    -0.239 NA
ATOM      3  H   LEU A   1      14.861  50.527  43.181  0.00  0.00    +0.142 HD
ENDBRANCH   1   2
BRANCH   1   4
ATOM      4  C   LEU A   1      16.286  51.261  45.945  0.00  0.00    +0.224 C 
ATOM      5  O   LEU A   1      16.612  51.126  47.130  0.00  0.00    -0.287 OA
ENDBRANCH   1   4
BRANCH   1   6
ATOM      6  CB  LEU A   1      16.566  49.190  44.599  0.00  0.00    +0.025 C 
BRANCH   6   7
ATOM      7  CG  LEU A   1      15.863  47.956  44.032  0.00  0.00    +0.002 C 
ATOM      8  CD2 LEU A   1      15.097  47.242  45.124  0.00  0.00    +0.000 C 
ATOM      9  CD1 LEU A   1      16.908  47.021  43.421  0.00  0.00    +0.000 C 
ENDBRANCH   6   7
ENDBRANCH   1   6
TORSDOF 4
REMARK  Name = ../refined-set-2016/1xkk/1xkk_pocket.pdb
REMARK  253 active torsions:
REMARK  status: ('A' for Active; 'I' for Inactive)
REMARK    1  A    between atoms: _1  and  _3
REMARK    2  A    between atoms: _3  and  _4
REMARK    3  A    between atoms: _3  and  _6
REMARK    4  A    between atoms: _9  and  _11
REMARK    5  A    between atoms: _11  and  _12
REMARK    6  A    between atoms: _11  and  _14
REMARK    7  A    between atoms: _14  and  _15
REMARK    8  A    between atoms: _18  and  _20
REMARK    9  A    between atoms: _20  and  _21
REMARK   10  A    between atoms: _23  and  _25
REMARK   11  A    between atoms: _25  and  _26
REMARK   12  A    between atoms: _25  and  _28
REMARK   13  A    between atoms: _28  and  _29
REMARK   14  A    between atoms: _31  and  _33
REMARK   15  A    between atoms: _33  and  _34
REMARK   16  A    between atoms: _36  and  _38
REMARK   17  A    between atoms: _38  and  _39
REMARK   18  A    between atoms: _38  and  _41
REMARK   19  A    between atoms: _41  and  _42
REMARK   20  A    between atoms: _48  and  _50
REMARK   21  A    between atoms: _50  and  _51
REMARK   22  A    between atoms: _50  and  _53
REMARK   23  A    between atoms: _53  and  _54
REMARK   24  A    between atoms: _57  and  _59
REMARK   25  A    between atoms: _59  and  _60
REMARK   26  A    between atoms: _59  and  _62
REMARK   27  A    between atoms: _65  and  _67
REMARK   28  A    between atoms: _67  and  _68
REMARK   29  A    between atoms: _67  and  _70
REMARK   30  A    between atoms: _70  and  _71
REMARK   31  A    between atoms: _76  and  _77
REMARK   32  A    between atoms: _79  and  _81
REMARK   33  A    between atoms: _81  and  _82
REMARK   34  A    between atoms: _81  and  _84
REMARK   35  A    between atoms: _84  and  _85
REMARK   36  A    between atoms: _85  and  _86
REMARK   37  A    between atoms: _86  and  _87
REMARK   38  A    between atoms: _87  and  _88
REMARK   39  A    between atoms: _92  and  _94
REMARK   40  A    between atoms: _94  and  _95
REMARK   41  A    between atoms: _98  and  _99
REMARK   42  A    between atoms: _104  and  _106
REMARK   43  A    between atoms: _106  and  _107
REMARK   44  A    between atoms: _106  and  _109
REMARK   45  A    between atoms: _112  and  _114
REMARK   46  A    between atoms: _114  and  _115
REMARK   47  A    between atoms: _118  and  _120
REMARK   48  A    between atoms: _120  and  _121
REMARK   49  A    between atoms: _120  and  _123
REMARK   50  A    between atoms: _123  and  _124
REMARK   51  A    between atoms: _127  and  _129
REMARK   52  A    between atoms: _129  and  _130
REMARK   53  A    between atoms: _129  and  _132
REMARK   54  A    between atoms: _132  and  _133
REMARK   55  A    between atoms: _133  and  _134
REMARK   56  A    between atoms: _134  and  _135
REMARK   57  A    between atoms: _135  and  _136
REMARK   58  A    between atoms: _140  and  _142
REMARK   59  A    between atoms: _142  and  _143
REMARK   60  A    between atoms: _142  and  _145
REMARK   61  A    between atoms: _145  and  _146
REMARK   62  A    between atoms: _146  and  _147
REMARK   63  A    between atoms: _150  and  _152
REMARK   64  A    between atoms: _152  and  _153
REMARK   65  A    between atoms: _152  and  _155
REMARK   66  A    between atoms: _155  and  _156
REMARK   67  A    between atoms: _159  and  _161
REMARK   68  A    between atoms: _161  and  _162
REMARK   69  A    between atoms: _161  and  _164
REMARK   70  A    between atoms: _164  and  _165
REMARK   71  A    between atoms: _165  and  _166
REMARK   72  A    between atoms: _169  and  _171
REMARK   73  A    between atoms: _171  and  _172
REMARK   74  A    between atoms: _175  and  _177
REMARK   75  A    between atoms: _177  and  _178
REMARK   76  A    between atoms: _177  and  _180
REMARK   77  A    between atoms: _183  and  _185
REMARK   78  A    between atoms: _185  and  _186
REMARK   79  A    between atoms: _185  and  _188
REMARK   80  A    between atoms: _188  and  _189
REMARK   81  A    between atoms: _189  and  _190
REMARK   82  A    between atoms: _192  and  _194
REMARK   83  A    between atoms: _194  and  _195
REMARK   84  A    between atoms: _198  and  _200
REMARK   85  A    between atoms: _200  and  _201
REMARK   86  A    between atoms: _200  and  _203
REMARK   87  A    between atoms: _206  and  _208
REMARK   88  A    between atoms: _208  and  _209
REMARK   89  A    between atoms: _208  and  _211
REMARK   90  A    between atoms: _214  and  _216
REMARK   91  A    between atoms: _216  and  _217
REMARK   92  A    between atoms: _216  and  _219
REMARK   93  A    between atoms: _221  and  _223
REMARK   94  A    between atoms: _223  and  _224
REMARK   95  A    between atoms: _223  and  _226
REMARK   96  A    between atoms: _226  and  _227
REMARK   97  A    between atoms: _227  and  _228
REMARK   98  A    between atoms: _228  and  _229
REMARK   99  A    between atoms: _238  and  _240
REMARK  100  A    between atoms: _240  and  _241
REMARK  101  A    between atoms: _240  and  _243
REMARK  102  A    between atoms: _243  and  _244
REMARK  103  A    between atoms: _247  and  _249
REMARK  104  A    between atoms: _249  and  _250
REMARK  105  A    between atoms: _249  and  _252
REMARK  106  A    between atoms: _252  and  _253
REMARK  107  A    between atoms: _256  and  _258
REMARK  108  A    between atoms: _258  and  _259
REMARK  109  A    between atoms: _261  and  _263
REMARK  110  A    between atoms: _263  and  _264
REMARK  111  A    between atoms: _263  and  _266
REMARK  112  A    between atoms: _266  and  _267
REMARK  113  A    between atoms: _267  and  _268
REMARK  114  A    between atoms: _273  and  _275
REMARK  115  A    between atoms: _275  and  _276
REMARK  116  A    between atoms: _275  and  _278
REMARK  117  A    between atoms: _278  and  _279
REMARK  118  A    between atoms: _282  and  _284
REMARK  119  A    between atoms: _284  and  _285
REMARK  120  A    between atoms: _284  and  _287
REMARK  121  A    between atoms: _287  and  _288
REMARK  122  A    between atoms: _291  and  _293
REMARK  123  A    between atoms: _293  and  _294
REMARK  124  A    between atoms: _293  and  _296
REMARK  125  A    between atoms: _296  and  _297
REMARK  126  A    between atoms: _300  and  _302
REMARK  127  A    between atoms: _302  and  _303
REMARK  128  A    between atoms: _302  and  _305
REMARK  129  A    between atoms: _305  and  _306
REMARK  130  A    between atoms: _306  and  _307
REMARK  131  A    between atoms: _312  and  _314
REMARK  132  A    between atoms: _314  and  _315
REMARK  133  A    between atoms: _314  and  _317
REMARK  134  A    between atoms: _317  and  _318
REMARK  135  A    between atoms: _321  and  _323
REMARK  136  A    between atoms: _323  and  _324
REMARK  137  A    between atoms: _323  and  _326
REMARK  138  A    between atoms: _326  and  _327
REMARK  139  A    between atoms: _327  and  _328
REMARK  140  A    between atoms: _331  and  _332
REMARK  141  A    between atoms: _337  and  _339
REMARK  142  A    between atoms: _339  and  _340
REMARK  143  A    between atoms: _339  and  _342
REMARK  144  A    between atoms: _342  and  _343
REMARK  145  A    between atoms: _349  and  _351
REMARK  146  A    between atoms: _351  and  _352
REMARK  147  A    between atoms: _354  and  _356
REMARK  148  A    between atoms: _356  and  _357
REMARK  149  A    between atoms: _356  and  _359
REMARK  150  A    between atoms: _361  and  _363
REMARK  151  A    between atoms: _363  and  _364
REMARK  152  A    between atoms: _363  and  _366
REMARK  153  A    between atoms: _366  and  _367
REMARK  154  A    between atoms: _370  and  _372
REMARK  155  A    between atoms: _372  and  _373
REMARK  156  A    between atoms: _372  and  _375
REMARK  157  A    between atoms: _375  and  _376
REMARK  158  A    between atoms: _379  and  _381
REMARK  159  A    between atoms: _381  and  _382
REMARK  160  A    between atoms: _381  and  _384
REMARK  161  A    between atoms: _384  and  _385
REMARK  162  A    between atoms: _388  and  _390
REMARK  163  A    between atoms: _390  and  _391
REMARK  164  A    between atoms: _390  and  _393
REMARK  165  A    between atoms: _393  and  _394
REMARK  166  A    between atoms: _399  and  _400
REMARK  167  A    between atoms: _402  and  _404
REMARK  168  A    between atoms: _404  and  _405
REMARK  169  A    between atoms: _404  and  _407
REMARK  170  A    between atoms: _407  and  _408
REMARK  171  A    between atoms: _408  and  _409
REMARK  172  A    between atoms: _409  and  _410
REMARK  173  A    between atoms: _419  and  _421
REMARK  174  A    between atoms: _421  and  _422
REMARK  175  A    between atoms: _421  and  _424
REMARK  176  A    between atoms: _424  and  _425
REMARK  177  A    between atoms: _428  and  _430
REMARK  178  A    between atoms: _430  and  _431
REMARK  179  A    between atoms: _430  and  _433
REMARK  180  A    between atoms: _433  and  _434
REMARK  181  A    between atoms: _439  and  _441
REMARK  182  A    between atoms: _441  and  _442
REMARK  183  A    between atoms: _445  and  _447
REMARK  184  A    between atoms: _447  and  _448
REMARK  185  A    between atoms: _447  and  _450
REMARK  186  A    between atoms: _450  and  _451
REMARK  187  A    between atoms: _451  and  _452
REMARK  188  A    between atoms: _452  and  _453
REMARK  189  A    between atoms: _462  and  _464
REMARK  190  A    between atoms: _464  and  _465
REMARK  191  A    between atoms: _464  and  _467
REMARK  192  A    between atoms: _467  and  _468
REMARK  193  A    between atoms: _473  and  _475
REMARK  194  A    between atoms: _475  and  _476
REMARK  195  A    between atoms: _475  and  _478
REMARK  196  A    between atoms: _481  and  _483
REMARK  197  A    between atoms: _483  and  _484
REMARK  198  A    between atoms: _483  and  _486
REMARK  199  A    between atoms: _486  and  _487
REMARK  200  A    between atoms: _490  and  _492
REMARK  201  A    between atoms: _492  and  _493
REMARK  202  A    between atoms: _492  and  _495
REMARK  203  A    between atoms: _498  and  _500
REMARK  204  A    between atoms: _500  and  _501
REMARK  205  A    between atoms: _500  and  _503
REMARK  206  A    between atoms: _503  and  _504
REMARK  207  A    between atoms: _504  and  _505
REMARK  208  A    between atoms: _505  and  _506
REMARK  209  A    between atoms: _506  and  _507
REMARK  210  A    between atoms: _511  and  _513
REMARK  211  A    between atoms: _513  and  _514
REMARK  212  A    between atoms: _513  and  _516
REMARK  213  A    between atoms: _516  and  _517
REMARK  214  A    between atoms: _520  and  _522
REMARK  215  A    between atoms: _522  and  _523
REMARK  216  A    between atoms: _522  and  _525
REMARK  217  A    between atoms: _525  and  _526
REMARK  218  A    between atoms: _529  and  _531
REMARK  219  A    between atoms: _531  and  _532
REMARK  220  A    between atoms: _531  and  _534
REMARK  221  A    between atoms: _534  and  _535
REMARK  222  A    between atoms: _538  and  _540
REMARK  223  A    between atoms: _540  and  _541
REMARK  224  A    between atoms: _540  and  _543
REMARK  225  A    between atoms: _543  and  _544
REMARK  226  A    between atoms: _550  and  _552
REMARK  227  A    between atoms: _552  and  _553
REMARK  228  A    between atoms: _555  and  _557
REMARK  229  A    between atoms: _557  and  _558
REMARK  230  A    between atoms: _557  and  _560
REMARK  231  A    between atoms: _560  and  _561
REMARK  232  A    between atoms: _564  and  _566
REMARK  233  A    between atoms: _566  and  _567
REMARK  234  A    between atoms: _570  and  _572
REMARK  235  A    between atoms: _572  and  _573
REMARK  236  A    between atoms: _572  and  _575
REMARK  237  A    between atoms: _575  and  _576
REMARK  238  A    between atoms: _586  and  _588
REMARK  239  A    between atoms: _588  and  _589
REMARK  240  A    between atoms: _588  and  _591
REMARK  241  A    between atoms: _591  and  _592
REMARK  242  A    between atoms: _592  and  _593
REMARK  243  A    between atoms: _596  and  _598
REMARK  244  A    between atoms: _598  and  _599
REMARK  245  A    between atoms: _601  and  _603
REMARK  246  A    between atoms: _603  and  _604
REMARK  247  A    between atoms: _603  and  _606
REMARK  248  A    between atoms: _606  and  _607
REMARK  249  A    between atoms: _610  and  _612
REMARK  250  A    between atoms: _612  and  _613
REMARK  251  A    between atoms: _612  and  _615
REMARK  252  A    between atoms: _615  and  _616
REMARK  253  A    between atoms: _616  and  _617
REMARK                            x       y       z     vdW  Elec       q    Type
REMARK                         _______ _______ _______ _____ _____    ______ ____
ROOT
ATOM      1  CB  HIS A   1      21.494  46.318  43.047  0.00  0.00    +0.072 C 
ENDROOT
BRANCH   1   2
ATOM      2  CG  HIS A   1      21.150  45.013  42.397  0.00  0.00    +0.082 A 
ATOM      3  ND1 HIS A   1      22.004  43.931  42.397  0.00  0.00    -0.227 NA
ATOM      4  CE1 HIS A   1      21.441  42.931  41.740  0.00  0.00    +0.199 A 
ATOM      5  NE2 HIS A   1      20.254  43.326  41.315  0.00  0.00    -0.221 NA
ATOM      6  CD2 HIS A   1      20.047  44.624  41.713  0.00  0.00    +0.115 A 
ENDBRANCH   1   2
BRANCH   1   7
ATOM      7  CA  HIS A   1      21.771  46.112  44.533  0.00  0.00    +0.139 C 
BRANCH   7   8
ATOM      8  N   HIS A   1      21.840  47.413  45.195  0.00  0.00    -0.239 NA
ATOM      9  H   HIS A   1      21.700  48.275  44.631  0.00  0.00    +0.142 HD
ENDBRANCH   7   8
BRANCH   7  10
ATOM     10  C   HIS A   1      23.062  45.310  44.723  0.00  0.00    +0.224 C 
ATOM     11  O   HIS A   1      23.029  44.176  45.215  0.00  0.00    -0.287 OA
ENDBRANCH   7  10
ENDBRANCH   1   7
TORSDOF 4
REMARK  Name = ../refined-set-2016/1xkk/1xkk_pocket.pdb
REMARK  253 active torsions:
REMARK  status: ('A' for Active; 'I' for Inactive)
REMARK    1  A    between atoms: _1  and  _3
REMARK    2  A    between atoms: _3  and  _4
REMARK    3  A    between atoms: _3  and  _6
REMARK    4  A    between atoms: _9  and  _11
REMARK    5  A    between atoms: _11  and  _12
REMARK    6  A    between atoms: _11  and  _14
REMARK    7  A    between atoms: _14  and  _15
REMARK    8  A    between atoms: _18  and  _20
REMARK    9  A    between atoms: _20  and  _21
REMARK   10  A    between atoms: _23  and  _25
REMARK   11  A    between atoms: _25  and  _26
REMARK   12  A    between atoms: _25  and  _28
REMARK   13  A    between atoms: _28  and  _29
REMARK   14  A    between atoms: _31  and  _33
REMARK   15  A    between atoms: _33  and  _34
REMARK   16  A    between atoms: _36  and  _38
REMARK   17  A    between atoms: _38  and  _39
REMARK   18  A    between atoms: _38  and  _41
REMARK   19  A    between atoms: _41  and  _42
REMARK   20  A    between atoms: _48  and  _50
REMARK   21  A    between atoms: _50  and  _51
REMARK   22  A    between atoms: _50  and  _53
REMARK   23  A    between atoms: _53  and  _54
REMARK   24  A    between atoms: _57  and  _59
REMARK   25  A    between atoms: _59  and  _60
REMARK   26  A    between atoms: _59  and  _62
REMARK   27  A    between atoms: _65  and  _67
REMARK   28  A    between atoms: _67  and  _68
REMARK   29  A    between atoms: _67  and  _70
REMARK   30  A    between atoms: _70  and  _71
REMARK   31  A    between atoms: _76  and  _77
REMARK   32  A    between atoms: _79  and  _81
REMARK   33  A    between atoms: _81  and  _82
REMARK   34  A    between atoms: _81  and  _84
REMARK   35  A    between atoms: _84  and  _85
REMARK   36  A    between atoms: _85  and  _86
REMARK   37  A    between atoms: _86  and  _87
REMARK   38  A    between atoms: _87  and  _88
REMARK   39  A    between atoms: _92  and  _94
REMARK   40  A    between atoms: _94  and  _95
REMARK   41  A    between atoms: _98  and  _99
REMARK   42  A    between atoms: _104  and  _106
REMARK   43  A    between atoms: _106  and  _107
REMARK   44  A    between atoms: _106  and  _109
REMARK   45  A    between atoms: _112  and  _114
REMARK   46  A    between atoms: _114  and  _115
REMARK   47  A    between atoms: _118  and  _120
REMARK   48  A    between atoms: _120  and  _121
REMARK   49  A    between atoms: _120  and  _123
REMARK   50  A    between atoms: _123  and  _124
REMARK   51  A    between atoms: _127  and  _129
REMARK   52  A    between atoms: _129  and  _130
REMARK   53  A    between atoms: _129  and  _132
REMARK   54  A    between atoms: _132  and  _133
REMARK   55  A    between atoms: _133  and  _134
REMARK   56  A    between atoms: _134  and  _135
REMARK   57  A    between atoms: _135  and  _136
REMARK   58  A    between atoms: _140  and  _142
REMARK   59  A    between atoms: _142  and  _143
REMARK   60  A    between atoms: _142  and  _145
REMARK   61  A    between atoms: _145  and  _146
REMARK   62  A    between atoms: _146  and  _147
REMARK   63  A    between atoms: _150  and  _152
REMARK   64  A    between atoms: _152  and  _153
REMARK   65  A    between atoms: _152  and  _155
REMARK   66  A    between atoms: _155  and  _156
REMARK   67  A    between atoms: _159  and  _161
REMARK   68  A    between atoms: _161  and  _162
REMARK   69  A    between atoms: _161  and  _164
REMARK   70  A    between atoms: _164  and  _165
REMARK   71  A    between atoms: _165  and  _166
REMARK   72  A    between atoms: _169  and  _171
REMARK   73  A    between atoms: _171  and  _172
REMARK   74  A    between atoms: _175  and  _177
REMARK   75  A    between atoms: _177  and  _178
REMARK   76  A    between atoms: _177  and  _180
REMARK   77  A    between atoms: _183  and  _185
REMARK   78  A    between atoms: _185  and  _186
REMARK   79  A    between atoms: _185  and  _188
REMARK   80  A    between atoms: _188  and  _189
REMARK   81  A    between atoms: _189  and  _190
REMARK   82  A    between atoms: _192  and  _194
REMARK   83  A    between atoms: _194  and  _195
REMARK   84  A    between atoms: _198  and  _200
REMARK   85  A    between atoms: _200  and  _201
REMARK   86  A    between atoms: _200  and  _203
REMARK   87  A    between atoms: _206  and  _208
REMARK   88  A    between atoms: _208  and  _209
REMARK   89  A    between atoms: _208  and  _211
REMARK   90  A    between atoms: _214  and  _216
REMARK   91  A    between atoms: _216  and  _217
REMARK   92  A    between atoms: _216  and  _219
REMARK   93  A    between atoms: _221  and  _223
REMARK   94  A    between atoms: _223  and  _224
REMARK   95  A    between atoms: _223  and  _226
REMARK   96  A    between atoms: _226  and  _227
REMARK   97  A    between atoms: _227  and  _228
REMARK   98  A    between atoms: _228  and  _229
REMARK   99  A    between atoms: _238  and  _240
REMARK  100  A    between atoms: _240  and  _241
REMARK  101  A    between atoms: _240  and  _243
REMARK  102  A    between atoms: _243  and  _244
REMARK  103  A    between atoms: _247  and  _249
REMARK  104  A    between atoms: _249  and  _250
REMARK  105  A    between atoms: _249  and  _252
REMARK  106  A    between atoms: _252  and  _253
REMARK  107  A    between atoms: _256  and  _258
REMARK  108  A    between atoms: _258  and  _259
REMARK  109  A    between atoms: _261  and  _263
REMARK  110  A    between atoms: _263  and  _264
REMARK  111  A    between atoms: _263  and  _266
REMARK  112  A    between atoms: _266  and  _267
REMARK  113  A    between atoms: _267  and  _268
REMARK  114  A    between atoms: _273  and  _275
REMARK  115  A    between atoms: _275  and  _276
REMARK  116  A    between atoms: _275  and  _278
REMARK  117  A    between atoms: _278  and  _279
REMARK  118  A    between atoms: _282  and  _284
REMARK  119  A    between atoms: _284  and  _285
REMARK  120  A    between atoms: _284  and  _287
REMARK  121  A    between atoms: _287  and  _288
REMARK  122  A    between atoms: _291  and  _293
REMARK  123  A    between atoms: _293  and  _294
REMARK  124  A    between atoms: _293  and  _296
REMARK  125  A    between atoms: _296  and  _297
REMARK  126  A    between atoms: _300  and  _302
REMARK  127  A    between atoms: _302  and  _303
REMARK  128  A    between atoms: _302  and  _305
REMARK  129  A    between atoms: _305  and  _306
REMARK  130  A    between atoms: _306  and  _307
REMARK  131  A    between atoms: _312  and  _314
REMARK  132  A    between atoms: _314  and  _315
REMARK  133  A    between atoms: _314  and  _317
REMARK  134  A    between atoms: _317  and  _318
REMARK  135  A    between atoms: _321  and  _323
REMARK  136  A    between atoms: _323  and  _324
REMARK  137  A    between atoms: _323  and  _326
REMARK  138  A    between atoms: _326  and  _327
REMARK  139  A    between atoms: _327  and  _328
REMARK  140  A    between atoms: _331  and  _332
REMARK  141  A    between atoms: _337  and  _339
REMARK  142  A    between atoms: _339  and  _340
REMARK  143  A    between atoms: _339  and  _342
REMARK  144  A    between atoms: _342  and  _343
REMARK  145  A    between atoms: _349  and  _351
REMARK  146  A    between atoms: _351  and  _352
REMARK  147  A    between atoms: _354  and  _356
REMARK  148  A    between atoms: _356  and  _357
REMARK  149  A    between atoms: _356  and  _359
REMARK  150  A    between atoms: _361  and  _363
REMARK  151  A    between atoms: _363  and  _364
REMARK  152  A    between atoms: _363  and  _366
REMARK  153  A    between atoms: _366  and  _367
REMARK  154  A    between atoms: _370  and  _372
REMARK  155  A    between atoms: _372  and  _373
REMARK  156  A    between atoms: _372  and  _375
REMARK  157  A    between atoms: _375  and  _376
REMARK  158  A    between atoms: _379  and  _381
REMARK  159  A    between atoms: _381  and  _382
REMARK  160  A    between atoms: _381  and  _384
REMARK  161  A    between atoms: _384  and  _385
REMARK  162  A    between atoms: _388  and  _390
REMARK  163  A    between atoms: _390  and  _391
REMARK  164  A    between atoms: _390  and  _393
REMARK  165  A    between atoms: _393  and  _394
REMARK  166  A    between atoms: _399  and  _400
REMARK  167  A    between atoms: _402  and  _404
REMARK  168  A    between atoms: _404  and  _405
REMARK  169  A    between atoms: _404  and  _407
REMARK  170  A    between atoms: _407  and  _408
REMARK  171  A    between atoms: _408  and  _409
REMARK  172  A    between atoms: _409  and  _410
REMARK  173  A    between atoms: _419  and  _421
REMARK  174  A    between atoms: _421  and  _422
REMARK  175  A    between atoms: _421  and  _424
REMARK  176  A    between atoms: _424  and  _425
REMARK  177  A    between atoms: _428  and  _430
REMARK  178  A    between atoms: _430  and  _431
REMARK  179  A    between atoms: _430  and  _433
REMARK  180  A    between atoms: _433  and  _434
REMARK  181  A    between atoms: _439  and  _441
REMARK  182  A    between atoms: _441  and  _442
REMARK  183  A    between atoms: _445  and  _447
REMARK  184  A    between atoms: _447  and  _448
REMARK  185  A    between atoms: _447  and  _450
REMARK  186  A    between atoms: _450  and  _451
REMARK  187  A    between atoms: _451  and  _452
REMARK  188  A    between atoms: _452  and  _453
REMARK  189  A    between atoms: _462  and  _464
REMARK  190  A    between atoms: _464  and  _465
REMARK  191  A    between atoms: _464  and  _467
REMARK  192  A    between atoms: _467  and  _468
REMARK  193  A    between atoms: _473  and  _475
REMARK  194  A    between atoms: _475  and  _476
REMARK  195  A    between atoms: _475  and  _478
REMARK  196  A    between atoms: _481  and  _483
REMARK  197  A    between atoms: _483  and  _484
REMARK  198  A    between atoms: _483  and  _486
REMARK  199  A    between atoms: _486  and  _487
REMARK  200  A    between atoms: _490  and  _492
REMARK  201  A    between atoms: _492  and  _493
REMARK  202  A    between atoms: _492  and  _495
REMARK  203  A    between atoms: _498  and  _500
REMARK  204  A    between atoms: _500  and  _501
REMARK  205  A    between atoms: _500  and  _503
REMARK  206  A    between atoms: _503  and  _504
REMARK  207  A    between atoms: _504  and  _505
REMARK  208  A    between atoms: _505  and  _506
REMARK  209  A    between atoms: _506  and  _507
REMARK  210  A    between atoms: _511  and  _513
REMARK  211  A    between atoms: _513  and  _514
REMARK  212  A    between atoms: _513  and  _516
REMARK  213  A    between atoms: _516  and  _517
REMARK  214  A    between atoms: _520  and  _522
REMARK  215  A    between atoms: _522  and  _523
REMARK  216  A    between atoms: _522  and  _525
REMARK  217  A    between atoms: _525  and  _526
REMARK  218  A    between atoms: _529  and  _531
REMARK  219  A    between atoms: _531  and  _532
REMARK  220  A    between atoms: _531  and  _534
REMARK  221  A    between atoms: _534  and  _535
REMARK  222  A    between atoms: _538  and  _540
REMARK  223  A    between atoms: _540  and  _541
REMARK  224  A    between atoms: _540  and  _543
REMARK  225  A    between atoms: _543  and  _544
REMARK  226  A    between atoms: _550  and  _552
REMARK  227  A    between atoms: _552  and  _553
REMARK  228  A    between atoms: _555  and  _557
REMARK  229  A    between atoms: _557  and  _558
REMARK  230  A    between atoms: _557  and  _560
REMARK  231  A    between atoms: _560  and  _561
REMARK  232  A    between atoms: _564  and  _566
REMARK  233  A    between atoms: _566  and  _567
REMARK  234  A    between atoms: _570  and  _572
REMARK  235  A    between atoms: _572  and  _573
REMARK  236  A    between atoms: _572  and  _575
REMARK  237  A    between atoms: _575  and  _576
REMARK  238  A    between atoms: _586  and  _588
REMARK  239  A    between atoms: _588  and  _589
REMARK  240  A    between atoms: _588  and  _591
REMARK  241  A    between atoms: _591  and  _592
REMARK  242  A    between atoms: _592  and  _593
REMARK  243  A    between atoms: _596  and  _598
REMARK  244  A    between atoms: _598  and  _599
REMARK  245  A    between atoms: _601  and  _603
REMARK  246  A    between atoms: _603  and  _604
REMARK  247  A    between atoms: _603  and  _606
REMARK  248  A    between atoms: _606  and  _607
REMARK  249  A    between atoms: _610  and  _612
REMARK  250  A    between atoms: _612  and  _613
REMARK  251  A    between atoms: _612  and  _615
REMARK  252  A    between atoms: _615  and  _616
REMARK  253  A    between atoms: _616  and  _617
REMARK                            x       y       z     vdW  Elec       q    Type
REMARK                         _______ _______ _______ _____ _____    ______ ____
ROOT
ATOM      1  CA  ASN A   3      20.224  39.525  36.802  0.00  0.00    +0.158 C 
ENDROOT
BRANCH   1   3
ATOM      2  C   ARG A   2      21.130  38.264  34.918  0.00  0.00    +0.241 C 
ATOM      3  N   ASN A   3      21.100  39.381  35.639  0.00  0.00    -0.297 N 
ATOM      4  H   ASN A   3      21.716  40.174  35.369  0.00  0.00    +0.150 HD
ATOM      5  O   ARG A   2      20.427  37.296  35.174  0.00  0.00    -0.273 OA
BRANCH   2   6
ATOM      6  CA  ARG A   2      22.083  38.235  33.722  0.00  0.00    +0.149 C 
BRANCH   6   8
ATOM      7  C   ALA A   1      21.536  40.348  32.689  0.00  0.00    +0.238 C 
ATOM      8  N   ARG A   2      22.428  39.590  33.313  0.00  0.00    -0.297 N 
ATOM      9  H   ARG A   2      23.378  39.965  33.511  0.00  0.00    +0.150 HD
ATOM     10  O   ALA A   1      20.400  39.953  32.440  0.00  0.00    -0.274 OA
BRANCH   7  11
ATOM     11  CA  ALA A   1      21.978  41.756  32.289  0.00  0.00    +0.145 C 
ATOM     12  CB  ALA A   1      22.487  41.763  30.857  0.00  0.00    +0.028 C 
BRANCH  11  13
ATOM     13  N   ALA A   1      23.005  42.277  33.182  0.00  0.00    -0.238 NA
ATOM     14  H   ALA A   1      23.912  42.597  32.787  0.00  0.00    +0.142 HD
ENDBRANCH  11  13
ENDBRANCH   7  11
ENDBRANCH   6   8
BRANCH   6  15
ATOM     15  CB  ARG A   2      23.353  37.423  34.057  0.00  0.00    +0.033 C 
BRANCH  15  16
ATOM     16  CG  ARG A   2      24.131  38.114  35.168  0.00  0.00    +0.045 C 
BRANCH  16  17
ATOM     17  CD  ARG A   2      25.319  37.244  35.623  0.00  0.00    +0.174 C 
BRANCH  17  18
ATOM     18  NE  ARG A   2      26.030  37.936  36.702  0.00  0.00    -0.265 N 
ATOM     19  HE  ARG A   2      25.801  37.668  37.681  0.00  0.00    +0.259 HD
ATOM     20  CZ  ARG A   2      26.948  38.883  36.518  0.00  0.00    +0.342 C 
ATOM     21  NH2 ARG A   2      27.492  39.491  37.563  0.00  0.00    -0.292 N 
ATOM     22 HH21 ARG A   2      27.202  39.228  38.527  0.00  0.00    +0.255 HD
ATOM     23 HH22 ARG A   2      28.209  40.231  37.419  0.00  0.00    +0.255 HD
ATOM     24  NH1 ARG A   2      27.296  39.254  35.293  0.00  0.00    -0.292 N 
ATOM     25 HH11 ARG A   2      28.014  39.994  35.158  0.00  0.00    +0.255 HD
ATOM     26 HH12 ARG A   2      26.851  38.805  34.467  0.00  0.00    +0.255 HD
ENDBRANCH  17  18
ENDBRANCH  16  17
ENDBRANCH  15  16
ENDBRANCH   6  15
ENDBRANCH   2   6
ENDBRANCH   1   3
BRANCH   1  27
ATOM     27  C   ASN A   3      18.978  40.363  36.512  0.00  0.00    +0.241 C 
ATOM     28  O   ASN A   3      18.439  41.013  37.402  0.00  0.00    -0.273 OA
ATOM     29  N   VAL A   4      18.549  40.363  35.253  0.00  0.00    -0.297 N 
ATOM     30  H   VAL A   4      19.099  39.846  34.538  0.00  0.00    +0.150 HD
BRANCH  29  31
ATOM     31  CA  VAL A   4      17.336  41.060  34.835  0.00  0.00    +0.149 C 
BRANCH  31  32
ATOM     32  C   VAL A   4      16.489  39.973  34.170  0.00  0.00    +0.241 C 
ATOM     33  N   LEU A   5      15.268  39.780  34.656  0.00  0.00    -0.297 N 
ATOM     34  H   LEU A   5      14.925  40.380  35.433  0.00  0.00    +0.150 HD
ATOM     35  O   VAL A   4      16.948  39.312  33.235  0.00  0.00    -0.273 OA
BRANCH  33  36
ATOM     36  CA  LEU A   5      14.403  38.740  34.117  0.00  0.00    +0.149 C 
BRANCH  36  37
ATOM     37  C   LEU A   5      13.344  39.250  33.140  0.00  0.00    +0.241 C 
ATOM     38  O   LEU A   5      12.946  40.411  33.178  0.00  0.00    -0.273 OA
ATOM     39  N   VAL A   6      12.896  38.374  32.255  0.00  0.00    -0.298 N 
ATOM     40  H   VAL A   6      13.273  37.405  32.255  0.00  0.00    +0.150 HD
BRANCH  39  41
ATOM     41  CA  VAL A   6      11.885  38.750  31.285  0.00  0.00    +0.137 C 
BRANCH  41  42
ATOM     42  CB  VAL A   6      12.305  38.347  29.845  0.00  0.00    +0.026 C 
ATOM     43  CG2 VAL A   6      13.677  38.935  29.516  0.00  0.00    +0.002 C 
ATOM     44  CG1 VAL A   6      11.267  38.841  28.839  0.00  0.00    +0.002 C 
ENDBRANCH  41  42
BRANCH  41  45
ATOM     45  C   VAL A   6      10.533  38.104  31.614  0.00  0.00    +0.227 C 
ATOM     46  O   VAL A   6      10.356  36.893  31.443  0.00  0.00    -0.286 OA
ENDBRANCH  41  45
ENDBRANCH  39  41
ENDBRANCH  36  37
BRANCH  36  47
ATOM     47  CB  LEU A   5      13.729  37.988  35.270  0.00  0.00    +0.029 C 
BRANCH  47  48
ATOM     48  CG  LEU A   5      14.796  37.313  36.148  0.00  0.00    +0.002 C 
ATOM     49  CD2 LEU A   5      14.140  36.611  37.315  0.00  0.00    +0.000 C 
ATOM     50  CD1 LEU A   5      15.608  36.305  35.323  0.00  0.00    +0.000 C 
ENDBRANCH  47  48
ENDBRANCH  36  47
ENDBRANCH  33  36
ENDBRANCH  31  32
BRANCH  31  51
ATOM     51  CB  VAL A   4      17.619  42.175  33.803  0.00  0.00    +0.027 C 
ATOM     52  CG2 VAL A   4      18.539  43.227  34.408  0.00  0.00    +0.002 C 
ATOM     53  CG1 VAL A   4      16.295  42.810  33.359  0.00  0.00    +0.002 C 
ENDBRANCH  31  51
ENDBRANCH  29  31
ENDBRANCH   1  27
BRANCH   1  54
ATOM     54  CB  ASN A   3      20.986  40.130  37.994  0.00  0.00    +0.114 C 
BRANCH  54  55
ATOM     55  CG  ASN A   3      21.944  39.091  38.563  0.00  0.00    +0.222 C 
ATOM     56  ND2 ASN A   3      23.171  39.511  38.871  0.00  0.00    -0.329 N 
ATOM     57 HD21 ASN A   3      23.863  38.846  39.270  0.00  0.00    +0.145 HD
ATOM     58 HD22 ASN A   3      23.436  40.504  38.712  0.00  0.00    +0.145 HD
ATOM     59  OD1 ASN A   3      21.579  37.928  38.731  0.00  0.00    -0.275 OA
ENDBRANCH  54  55
ENDBRANCH   1  54
TORSDOF 22
REMARK  Name = ../refined-set-2016/1xkk/1xkk_pocket.pdb
REMARK  253 active torsions:
REMARK  status: ('A' for Active; 'I' for Inactive)
REMARK    1  A    between atoms: _1  and  _3
REMARK    2  A    between atoms: _3  and  _4
REMARK    3  A    between atoms: _3  and  _6
REMARK    4  A    between atoms: _9  and  _11
REMARK    5  A    between atoms: _11  and  _12
REMARK    6  A    between atoms: _11  and  _14
REMARK    7  A    between atoms: _14  and  _15
REMARK    8  A    between atoms: _18  and  _20
REMARK    9  A    between atoms: _20  and  _21
REMARK   10  A    between atoms: _23  and  _25
REMARK   11  A    between atoms: _25  and  _26
REMARK   12  A    between atoms: _25  and  _28
REMARK   13  A    between atoms: _28  and  _29
REMARK   14  A    between atoms: _31  and  _33
REMARK   15  A    between atoms: _33  and  _34
REMARK   16  A    between atoms: _36  and  _38
REMARK   17  A    between atoms: _38  and  _39
REMARK   18  A    between atoms: _38  and  _41
REMARK   19  A    between atoms: _41  and  _42
REMARK   20  A    between atoms: _48  and  _50
REMARK   21  A    between atoms: _50  and  _51
REMARK   22  A    between atoms: _50  and  _53
REMARK   23  A    between atoms: _53  and  _54
REMARK   24  A    between atoms: _57  and  _59
REMARK   25  A    between atoms: _59  and  _60
REMARK   26  A    between atoms: _59  and  _62
REMARK   27  A    between atoms: _65  and  _67
REMARK   28  A    between atoms: _67  and  _68
REMARK   29  A    between atoms: _67  and  _70
REMARK   30  A    between atoms: _70  and  _71
REMARK   31  A    between atoms: _76  and  _77
REMARK   32  A    between atoms: _79  and  _81
REMARK   33  A    between atoms: _81  and  _82
REMARK   34  A    between atoms: _81  and  _84
REMARK   35  A    between atoms: _84  and  _85
REMARK   36  A    between atoms: _85  and  _86
REMARK   37  A    between atoms: _86  and  _87
REMARK   38  A    between atoms: _87  and  _88
REMARK   39  A    between atoms: _92  and  _94
REMARK   40  A    between atoms: _94  and  _95
REMARK   41  A    between atoms: _98  and  _99
REMARK   42  A    between atoms: _104  and  _106
REMARK   43  A    between atoms: _106  and  _107
REMARK   44  A    between atoms: _106  and  _109
REMARK   45  A    between atoms: _112  and  _114
REMARK   46  A    between atoms: _114  and  _115
REMARK   47  A    between atoms: _118  and  _120
REMARK   48  A    between atoms: _120  and  _121
REMARK   49  A    between atoms: _120  and  _123
REMARK   50  A    between atoms: _123  and  _124
REMARK   51  A    between atoms: _127  and  _129
REMARK   52  A    between atoms: _129  and  _130
REMARK   53  A    between atoms: _129  and  _132
REMARK   54  A    between atoms: _132  and  _133
REMARK   55  A    between atoms: _133  and  _134
REMARK   56  A    between atoms: _134  and  _135
REMARK   57  A    between atoms: _135  and  _136
REMARK   58  A    between atoms: _140  and  _142
REMARK   59  A    between atoms: _142  and  _143
REMARK   60  A    between atoms: _142  and  _145
REMARK   61  A    between atoms: _145  and  _146
REMARK   62  A    between atoms: _146  and  _147
REMARK   63  A    between atoms: _150  and  _152
REMARK   64  A    between atoms: _152  and  _153
REMARK   65  A    between atoms: _152  and  _155
REMARK   66  A    between atoms: _155  and  _156
REMARK   67  A    between atoms: _159  and  _161
REMARK   68  A    between atoms: _161  and  _162
REMARK   69  A    between atoms: _161  and  _164
REMARK   70  A    between atoms: _164  and  _165
REMARK   71  A    between atoms: _165  and  _166
REMARK   72  A    between atoms: _169  and  _171
REMARK   73  A    between atoms: _171  and  _172
REMARK   74  A    between atoms: _175  and  _177
REMARK   75  A    between atoms: _177  and  _178
REMARK   76  A    between atoms: _177  and  _180
REMARK   77  A    between atoms: _183  and  _185
REMARK   78  A    between atoms: _185  and  _186
REMARK   79  A    between atoms: _185  and  _188
REMARK   80  A    between atoms: _188  and  _189
REMARK   81  A    between atoms: _189  and  _190
REMARK   82  A    between atoms: _192  and  _194
REMARK   83  A    between atoms: _194  and  _195
REMARK   84  A    between atoms: _198  and  _200
REMARK   85  A    between atoms: _200  and  _201
REMARK   86  A    between atoms: _200  and  _203
REMARK   87  A    between atoms: _206  and  _208
REMARK   88  A    between atoms: _208  and  _209
REMARK   89  A    between atoms: _208  and  _211
REMARK   90  A    between atoms: _214  and  _216
REMARK   91  A    between atoms: _216  and  _217
REMARK   92  A    between atoms: _216  and  _219
REMARK   93  A    between atoms: _221  and  _223
REMARK   94  A    between atoms: _223  and  _224
REMARK   95  A    between atoms: _223  and  _226
REMARK   96  A    between atoms: _226  and  _227
REMARK   97  A    between atoms: _227  and  _228
REMARK   98  A    between atoms: _228  and  _229
REMARK   99  A    between atoms: _238  and  _240
REMARK  100  A    between atoms: _240  and  _241
REMARK  101  A    between atoms: _240  and  _243
REMARK  102  A    between atoms: _243  and  _244
REMARK  103  A    between atoms: _247  and  _249
REMARK  104  A    between atoms: _249  and  _250
REMARK  105  A    between atoms: _249  and  _252
REMARK  106  A    between atoms: _252  and  _253
REMARK  107  A    between atoms: _256  and  _258
REMARK  108  A    between atoms: _258  and  _259
REMARK  109  A    between atoms: _261  and  _263
REMARK  110  A    between atoms: _263  and  _264
REMARK  111  A    between atoms: _263  and  _266
REMARK  112  A    between atoms: _266  and  _267
REMARK  113  A    between atoms: _267  and  _268
REMARK  114  A    between atoms: _273  and  _275
REMARK  115  A    between atoms: _275  and  _276
REMARK  116  A    between atoms: _275  and  _278
REMARK  117  A    between atoms: _278  and  _279
REMARK  118  A    between atoms: _282  and  _284
REMARK  119  A    between atoms: _284  and  _285
REMARK  120  A    between atoms: _284  and  _287
REMARK  121  A    between atoms: _287  and  _288
REMARK  122  A    between atoms: _291  and  _293
REMARK  123  A    between atoms: _293  and  _294
REMARK  124  A    between atoms: _293  and  _296
REMARK  125  A    between atoms: _296  and  _297
REMARK  126  A    between atoms: _300  and  _302
REMARK  127  A    between atoms: _302  and  _303
REMARK  128  A    between atoms: _302  and  _305
REMARK  129  A    between atoms: _305  and  _306
REMARK  130  A    between atoms: _306  and  _307
REMARK  131  A    between atoms: _312  and  _314
REMARK  132  A    between atoms: _314  and  _315
REMARK  133  A    between atoms: _314  and  _317
REMARK  134  A    between atoms: _317  and  _318
REMARK  135  A    between atoms: _321  and  _323
REMARK  136  A    between atoms: _323  and  _324
REMARK  137  A    between atoms: _323  and  _326
REMARK  138  A    between atoms: _326  and  _327
REMARK  139  A    between atoms: _327  and  _328
REMARK  140  A    between atoms: _331  and  _332
REMARK  141  A    between atoms: _337  and  _339
REMARK  142  A    between atoms: _339  and  _340
REMARK  143  A    between atoms: _339  and  _342
REMARK  144  A    between atoms: _342  and  _343
REMARK  145  A    between atoms: _349  and  _351
REMARK  146  A    between atoms: _351  and  _352
REMARK  147  A    between atoms: _354  and  _356
REMARK  148  A    between atoms: _356  and  _357
REMARK  149  A    between atoms: _356  and  _359
REMARK  150  A    between atoms: _361  and  _363
REMARK  151  A    between atoms: _363  and  _364
REMARK  152  A    between atoms: _363  and  _366
REMARK  153  A    between atoms: _366  and  _367
REMARK  154  A    between atoms: _370  and  _372
REMARK  155  A    between atoms: _372  and  _373
REMARK  156  A    between atoms: _372  and  _375
REMARK  157  A    between atoms: _375  and  _376
REMARK  158  A    between atoms: _379  and  _381
REMARK  159  A    between atoms: _381  and  _382
REMARK  160  A    between atoms: _381  and  _384
REMARK  161  A    between atoms: _384  and  _385
REMARK  162  A    between atoms: _388  and  _390
REMARK  163  A    between atoms: _390  and  _391
REMARK  164  A    between atoms: _390  and  _393
REMARK  165  A    between atoms: _393  and  _394
REMARK  166  A    between atoms: _399  and  _400
REMARK  167  A    between atoms: _402  and  _404
REMARK  168  A    between atoms: _404  and  _405
REMARK  169  A    between atoms: _404  and  _407
REMARK  170  A    between atoms: _407  and  _408
REMARK  171  A    between atoms: _408  and  _409
REMARK  172  A    between atoms: _409  and  _410
REMARK  173  A    between atoms: _419  and  _421
REMARK  174  A    between atoms: _421  and  _422
REMARK  175  A    between atoms: _421  and  _424
REMARK  176  A    between atoms: _424  and  _425
REMARK  177  A    between atoms: _428  and  _430
REMARK  178  A    between atoms: _430  and  _431
REMARK  179  A    between atoms: _430  and  _433
REMARK  180  A    between atoms: _433  and  _434
REMARK  181  A    between atoms: _439  and  _441
REMARK  182  A    between atoms: _441  and  _442
REMARK  183  A    between atoms: _445  and  _447
REMARK  184  A    between atoms: _447  and  _448
REMARK  185  A    between atoms: _447  and  _450
REMARK  186  A    between atoms: _450  and  _451
REMARK  187  A    between atoms: _451  and  _452
REMARK  188  A    between atoms: _452  and  _453
REMARK  189  A    between atoms: _462  and  _464
REMARK  190  A    between atoms: _464  and  _465
REMARK  191  A    between atoms: _464  and  _467
REMARK  192  A    between atoms: _467  and  _468
REMARK  193  A    between atoms: _473  and  _475
REMARK  194  A    between atoms: _475  and  _476
REMARK  195  A    between atoms: _475  and  _478
REMARK  196  A    between atoms: _481  and  _483
REMARK  197  A    between atoms: _483  and  _484
REMARK  198  A    between atoms: _483  and  _486
REMARK  199  A    between atoms: _486  and  _487
REMARK  200  A    between atoms: _490  and  _492
REMARK  201  A    between atoms: _492  and  _493
REMARK  202  A    between atoms: _492  and  _495
REMARK  203  A    between atoms: _498  and  _500
REMARK  204  A    between atoms: _500  and  _501
REMARK  205  A    between atoms: _500  and  _503
REMARK  206  A    between atoms: _503  and  _504
REMARK  207  A    between atoms: _504  and  _505
REMARK  208  A    between atoms: _505  and  _506
REMARK  209  A    between atoms: _506  and  _507
REMARK  210  A    between atoms: _511  and  _513
REMARK  211  A    between atoms: _513  and  _514
REMARK  212  A    between atoms: _513  and  _516
REMARK  213  A    between atoms: _516  and  _517
REMARK  214  A    between atoms: _520  and  _522
REMARK  215  A    between atoms: _522  and  _523
REMARK  216  A    between atoms: _522  and  _525
REMARK  217  A    between atoms: _525  and  _526
REMARK  218  A    between atoms: _529  and  _531
REMARK  219  A    between atoms: _531  and  _532
REMARK  220  A    between atoms: _531  and  _534
REMARK  221  A    between atoms: _534  and  _535
REMARK  222  A    between atoms: _538  and  _540
REMARK  223  A    between atoms: _540  and  _541
REMARK  224  A    between atoms: _540  and  _543
REMARK  225  A    between atoms: _543  and  _544
REMARK  226  A    between atoms: _550  and  _552
REMARK  227  A    between atoms: _552  and  _553
REMARK  228  A    between atoms: _555  and  _557
REMARK  229  A    between atoms: _557  and  _558
REMARK  230  A    between atoms: _557  and  _560
REMARK  231  A    between atoms: _560  and  _561
REMARK  232  A    between atoms: _564  and  _566
REMARK  233  A    between atoms: _566  and  _567
REMARK  234  A    between atoms: _570  and  _572
REMARK  235  A    between atoms: _572  and  _573
REMARK  236  A    between atoms: _572  and  _575
REMARK  237  A    between atoms: _575  and  _576
REMARK  238  A    between atoms: _586  and  _588
REMARK  239  A    between atoms: _588  and  _589
REMARK  240  A    between atoms: _588  and  _591
REMARK  241  A    between atoms: _591  and  _592
REMARK  242  A    between atoms: _592  and  _593
REMARK  243  A    between atoms: _596  and  _598
REMARK  244  A    between atoms: _598  and  _599
REMARK  245  A    between atoms: _601  and  _603
REMARK  246  A    between atoms: _603  and  _604
REMARK  247  A    between atoms: _603  and  _606
REMARK  248  A    between atoms: _606  and  _607
REMARK  249  A    between atoms: _610  and  _612
REMARK  250  A    between atoms: _612  and  _613
REMARK  251  A    between atoms: _612  and  _615
REMARK  252  A    between atoms: _615  and  _616
REMARK  253  A    between atoms: _616  and  _617
REMARK                            x       y       z     vdW  Elec       q    Type
REMARK                         _______ _______ _______ _____ _____    ______ ____
ROOT
ATOM      1  CA  ASP A   4      19.195  39.139  42.854  0.00  0.00    +0.160 C 
ENDROOT
BRANCH   1   3
ATOM      2  C   THR A   3      17.781  40.304  41.235  0.00  0.00    +0.243 C 
ATOM      3  N   ASP A   4      17.920  39.396  42.197  0.00  0.00    -0.296 N 
ATOM      4  H   ASP A   4      17.086  38.848  42.492  0.00  0.00    +0.150 HD
ATOM      5  O   THR A   3      18.698  41.027  40.859  0.00  0.00    -0.273 OA
BRANCH   2   6
ATOM      6  CA  THR A   3      16.394  40.429  40.622  0.00  0.00    +0.176 C 
BRANCH   6   9
ATOM      7  C   ILE A   2      15.405  42.245  39.391  0.00  0.00    +0.241 C 
ATOM      8  O   ILE A   2      14.379  42.190  40.071  0.00  0.00    -0.273 OA
ATOM      9  N   THR A   3      16.429  41.424  39.575  0.00  0.00    -0.295 N 
ATOM     10  H   THR A   3      17.265  41.497  38.960  0.00  0.00    +0.150 HD
BRANCH   7  11
ATOM     11  CA  ILE A   2      15.554  43.280  38.276  0.00  0.00    +0.148 C 
BRANCH  11  13
ATOM     12  C   LYS A   1      13.764  42.592  36.753  0.00  0.00    +0.238 C 
ATOM     13  N   ILE A   2      14.280  43.470  37.603  0.00  0.00    -0.297 N 
ATOM     14  H   ILE A   2      13.745  44.340  37.798  0.00  0.00    +0.150 HD
ATOM     15  O   LYS A   1      14.312  41.535  36.445  0.00  0.00    -0.274 OA
BRANCH  12  16
ATOM     16  CA  LYS A   1      12.416  42.971  36.171  0.00  0.00    +0.145 C 
BRANCH  16  17
ATOM     17  N   LYS A   1      12.340  42.668  34.747  0.00  0.00    -0.238 NA
ATOM     18  H   LYS A   1      12.828  41.828  34.376  0.00  0.00    +0.142 HD
ENDBRANCH  16  17
BRANCH  16  19
ATOM     19  CB  LYS A   1      11.323  42.213  36.934  0.00  0.00    +0.026 C 
BRANCH  19  20
ATOM     20  CG  LYS A   1       9.946  42.635  36.442  0.00  0.00    -0.000 C 
BRANCH  20  21
ATOM     21  CD  LYS A   1       8.902  41.646  36.950  0.00  0.00    -0.024 C 
BRANCH  21  22
ATOM     22  CE  LYS A   1       8.919  41.636  38.462  0.00  0.00    -0.086 C 
BRANCH  22  23
ATOM     23  NZ  LYS A   1       8.217  40.429  38.949  0.00  0.00    +0.380 N 
ATOM     24  HZ1 LYS A   1       8.227  40.419  39.989  0.00  0.00    -0.089 HD
ATOM     25  HZ2 LYS A   1       7.234  40.441  38.611  0.00  0.00    -0.089 HD
ATOM     26  HZ3 LYS A   1       8.698  39.580  38.589  0.00  0.00    -0.089 HD
ENDBRANCH  22  23
ENDBRANCH  21  22
ENDBRANCH  20  21
ENDBRANCH  19  20
ENDBRANCH  16  19
ENDBRANCH  12  16
ENDBRANCH  11  13
BRANCH  11  27
ATOM     27  CB  ILE A   2      16.026  44.605  38.909  0.00  0.00    +0.027 C 
ATOM     28  CG2 ILE A   2      17.284  44.373  39.742  0.00  0.00    +0.002 C 
BRANCH  27  29
ATOM     29  CG1 ILE A   2      16.259  45.653  37.813  0.00  0.00    +0.002 C 
ATOM     30  CD1 ILE A   2      16.119  47.034  38.416  0.00  0.00    +0.000 C 
ENDBRANCH  27  29
ENDBRANCH  11  27
ENDBRANCH   7  11
ENDBRANCH   6   9
BRANCH   6  31
ATOM     31  CB  THR A   3      15.931  39.052  40.075  0.00  0.00    +0.137 C 
ATOM     32  CG2 THR A   3      17.024  38.411  39.209  0.00  0.00    +0.034 C 
BRANCH  31  33
ATOM     33  OG1 THR A   3      15.630  38.183  41.174  0.00  0.00    -0.382 OA
ATOM     34  HG1 THR A   3      15.334  37.304  40.827  0.00  0.00    +0.210 HD
ENDBRANCH  31  33
ENDBRANCH   6  31
ENDBRANCH   2   6
ENDBRANCH   1   3
BRANCH   1  35
ATOM     35  C   ASP A   4      19.794  40.241  43.725  0.00  0.00    +0.241 C 
ATOM     36  N   PHE A   5      19.000  41.238  44.108  0.00  0.00    -0.297 N 
ATOM     37  H   PHE A   5      18.010  41.278  43.791  0.00  0.00    +0.150 HD
ATOM     38  O   ASP A   4      20.984  40.192  44.045  0.00  0.00    -0.273 OA
BRANCH  36  39
ATOM     39  CA  PHE A   5      19.541  42.270  44.977  0.00  0.00    +0.153 C 
BRANCH  39  40
ATOM     40  C   PHE A   5      19.464  41.717  46.385  0.00  0.00    +0.241 C 
ATOM     41  N   GLY A   6      20.206  42.333  47.298  0.00  0.00    -0.295 N 
ATOM     42  H   GLY A   6      20.792  43.148  47.026  0.00  0.00    +0.150 HD
ATOM     43  O   PHE A   5      18.761  40.731  46.634  0.00  0.00    -0.273 OA
BRANCH  41  44
ATOM     44  CA  GLY A   6      20.202  41.872  48.675  0.00  0.00    +0.176 C 
BRANCH  44  45
ATOM     45  C   GLY A   6      21.172  40.739  48.979  0.00  0.00    +0.243 C 
ATOM     46  O   GLY A   6      21.770  40.712  50.056  0.00  0.00    -0.273 OA
ATOM     47  N   LEU A   7      21.344  39.811  48.040  0.00  0.00    -0.297 N 
ATOM     48  H   LEU A   7      20.837  39.899  47.136  0.00  0.00    +0.150 HD
BRANCH  47  49
ATOM     49  CA  LEU A   7      22.229  38.676  48.257  0.00  0.00    +0.149 C 
BRANCH  49  50
ATOM     50  C   LEU A   7      23.691  39.030  48.454  0.00  0.00    +0.241 C 
ATOM     51  O   LEU A   7      24.345  38.484  49.342  0.00  0.00    -0.273 OA
ATOM     52  N   ALA A   8      24.211  39.933  47.630  0.00  0.00    -0.298 N 
ATOM     53  H   ALA A   8      23.610  40.368  46.901  0.00  0.00    +0.150 HD
BRANCH  52  54
ATOM     54  CA  ALA A   8      25.616  40.323  47.734  0.00  0.00    +0.137 C 
ATOM     55  CB  ALA A   8      25.915  41.466  46.783  0.00  0.00    +0.030 C 
BRANCH  54  56
ATOM     56  C   ALA A   8      25.990  40.713  49.162  0.00  0.00    +0.227 C 
ATOM     57  O   ALA A   8      26.920  40.150  49.741  0.00  0.00    -0.286 OA
ENDBRANCH  54  56
ENDBRANCH  52  54
ENDBRANCH  49  50
BRANCH  49  58
ATOM     58  CB  LEU A   7      22.115  37.671  47.107  0.00  0.00    +0.029 C 
BRANCH  58  59
ATOM     59  CG  LEU A   7      20.754  36.962  47.146  0.00  0.00    +0.002 C 
ATOM     60  CD2 LEU A   7      20.455  36.416  48.538  0.00  0.00    +0.000 C 
ATOM     61  CD1 LEU A   7      20.773  35.822  46.129  0.00  0.00    +0.000 C 
ENDBRANCH  58  59
ENDBRANCH  49  58
ENDBRANCH  47  49
ENDBRANCH  44  45
ENDBRANCH  41  44
ENDBRANCH  39  40
BRANCH  39  62
ATOM     62  CB  PHE A   5      18.756  43.578  44.881  0.00  0.00    +0.055 C 
BRANCH  62  63
ATOM     63  CG  PHE A   5      17.292  43.336  45.032  0.00  0.00    -0.020 A 
ATOM     64  CD2 PHE A   5      16.687  43.430  46.273  0.00  0.00    -0.004 A 
ATOM     65  CE2 PHE A   5      15.314  43.216  46.412  0.00  0.00    -0.000 A 
ATOM     66  CZ  PHE A   5      14.545  42.906  45.293  0.00  0.00    -0.000 A 
ATOM     67  CE1 PHE A   5      15.146  42.807  44.051  0.00  0.00    -0.000 A 
ATOM     68  CD1 PHE A   5      16.511  43.021  43.925  0.00  0.00    -0.004 A 
ENDBRANCH  62  63
ENDBRANCH  39  62
ENDBRANCH  36  39
ENDBRANCH   1  35
BRANCH   1  69
ATOM     69  CB  ASP A   4      20.244  38.703  41.826  0.00  0.00    +0.143 C 
BRANCH  69  70
ATOM     70  CG  ASP A   4      20.467  37.213  41.964  0.00  0.00    +0.367 C 
ATOM     71  OD2 ASP A   4      20.350  36.699  43.095  0.00  0.00    -0.246 OA
ATOM     72  OD1 ASP A   4      20.766  36.555  40.951  0.00  0.00    -0.246 OA
ENDBRANCH  69  70
ENDBRANCH   1  69
TORSDOF 31
REMARK  Name = ../refined-set-2016/1xkk/1xkk_pocket.pdb
REMARK  253 active torsions:
REMARK  status: ('A' for Active; 'I' for Inactive)
REMARK    1  A    between atoms: _1  and  _3
REMARK    2  A    between atoms: _3  and  _4
REMARK    3  A    between atoms: _3  and  _6
REMARK    4  A    between atoms: _9  and  _11
REMARK    5  A    between atoms: _11  and  _12
REMARK    6  A    between atoms: _11  and  _14
REMARK    7  A    between atoms: _14  and  _15
REMARK    8  A    between atoms: _18  and  _20
REMARK    9  A    between atoms: _20  and  _21
REMARK   10  A    between atoms: _23  and  _25
REMARK   11  A    between atoms: _25  and  _26
REMARK   12  A    between atoms: _25  and  _28
REMARK   13  A    between atoms: _28  and  _29
REMARK   14  A    between atoms: _31  and  _33
REMARK   15  A    between atoms: _33  and  _34
REMARK   16  A    between atoms: _36  and  _38
REMARK   17  A    between atoms: _38  and  _39
REMARK   18  A    between atoms: _38  and  _41
REMARK   19  A    between atoms: _41  and  _42
REMARK   20  A    between atoms: _48  and  _50
REMARK   21  A    between atoms: _50  and  _51
REMARK   22  A    between atoms: _50  and  _53
REMARK   23  A    between atoms: _53  and  _54
REMARK   24  A    between atoms: _57  and  _59
REMARK   25  A    between atoms: _59  and  _60
REMARK   26  A    between atoms: _59  and  _62
REMARK   27  A    between atoms: _65  and  _67
REMARK   28  A    between atoms: _67  and  _68
REMARK   29  A    between atoms: _67  and  _70
REMARK   30  A    between atoms: _70  and  _71
REMARK   31  A    between atoms: _76  and  _77
REMARK   32  A    between atoms: _79  and  _81
REMARK   33  A    between atoms: _81  and  _82
REMARK   34  A    between atoms: _81  and  _84
REMARK   35  A    between atoms: _84  and  _85
REMARK   36  A    between atoms: _85  and  _86
REMARK   37  A    between atoms: _86  and  _87
REMARK   38  A    between atoms: _87  and  _88
REMARK   39  A    between atoms: _92  and  _94
REMARK   40  A    between atoms: _94  and  _95
REMARK   41  A    between atoms: _98  and  _99
REMARK   42  A    between atoms: _104  and  _106
REMARK   43  A    between atoms: _106  and  _107
REMARK   44  A    between atoms: _106  and  _109
REMARK   45  A    between atoms: _112  and  _114
REMARK   46  A    between atoms: _114  and  _115
REMARK   47  A    between atoms: _118  and  _120
REMARK   48  A    between atoms: _120  and  _121
REMARK   49  A    between atoms: _120  and  _123
REMARK   50  A    between atoms: _123  and  _124
REMARK   51  A    between atoms: _127  and  _129
REMARK   52  A    between atoms: _129  and  _130
REMARK   53  A    between atoms: _129  and  _132
REMARK   54  A    between atoms: _132  and  _133
REMARK   55  A    between atoms: _133  and  _134
REMARK   56  A    between atoms: _134  and  _135
REMARK   57  A    between atoms: _135  and  _136
REMARK   58  A    between atoms: _140  and  _142
REMARK   59  A    between atoms: _142  and  _143
REMARK   60  A    between atoms: _142  and  _145
REMARK   61  A    between atoms: _145  and  _146
REMARK   62  A    between atoms: _146  and  _147
REMARK   63  A    between atoms: _150  and  _152
REMARK   64  A    between atoms: _152  and  _153
REMARK   65  A    between atoms: _152  and  _155
REMARK   66  A    between atoms: _155  and  _156
REMARK   67  A    between atoms: _159  and  _161
REMARK   68  A    between atoms: _161  and  _162
REMARK   69  A    between atoms: _161  and  _164
REMARK   70  A    between atoms: _164  and  _165
REMARK   71  A    between atoms: _165  and  _166
REMARK   72  A    between atoms: _169  and  _171
REMARK   73  A    between atoms: _171  and  _172
REMARK   74  A    between atoms: _175  and  _177
REMARK   75  A    between atoms: _177  and  _178
REMARK   76  A    between atoms: _177  and  _180
REMARK   77  A    between atoms: _183  and  _185
REMARK   78  A    between atoms: _185  and  _186
REMARK   79  A    between atoms: _185  and  _188
REMARK   80  A    between atoms: _188  and  _189
REMARK   81  A    between atoms: _189  and  _190
REMARK   82  A    between atoms: _192  and  _194
REMARK   83  A    between atoms: _194  and  _195
REMARK   84  A    between atoms: _198  and  _200
REMARK   85  A    between atoms: _200  and  _201
REMARK   86  A    between atoms: _200  and  _203
REMARK   87  A    between atoms: _206  and  _208
REMARK   88  A    between atoms: _208  and  _209
REMARK   89  A    between atoms: _208  and  _211
REMARK   90  A    between atoms: _214  and  _216
REMARK   91  A    between atoms: _216  and  _217
REMARK   92  A    between atoms: _216  and  _219
REMARK   93  A    between atoms: _221  and  _223
REMARK   94  A    between atoms: _223  and  _224
REMARK   95  A    between atoms: _223  and  _226
REMARK   96  A    between atoms: _226  and  _227
REMARK   97  A    between atoms: _227  and  _228
REMARK   98  A    between atoms: _228  and  _229
REMARK   99  A    between atoms: _238  and  _240
REMARK  100  A    between atoms: _240  and  _241
REMARK  101  A    between atoms: _240  and  _243
REMARK  102  A    between atoms: _243  and  _244
REMARK  103  A    between atoms: _247  and  _249
REMARK  104  A    between atoms: _249  and  _250
REMARK  105  A    between atoms: _249  and  _252
REMARK  106  A    between atoms: _252  and  _253
REMARK  107  A    between atoms: _256  and  _258
REMARK  108  A    between atoms: _258  and  _259
REMARK  109  A    between atoms: _261  and  _263
REMARK  110  A    between atoms: _263  and  _264
REMARK  111  A    between atoms: _263  and  _266
REMARK  112  A    between atoms: _266  and  _267
REMARK  113  A    between atoms: _267  and  _268
REMARK  114  A    between atoms: _273  and  _275
REMARK  115  A    between atoms: _275  and  _276
REMARK  116  A    between atoms: _275  and  _278
REMARK  117  A    between atoms: _278  and  _279
REMARK  118  A    between atoms: _282  and  _284
REMARK  119  A    between atoms: _284  and  _285
REMARK  120  A    between atoms: _284  and  _287
REMARK  121  A    between atoms: _287  and  _288
REMARK  122  A    between atoms: _291  and  _293
REMARK  123  A    between atoms: _293  and  _294
REMARK  124  A    between atoms: _293  and  _296
REMARK  125  A    between atoms: _296  and  _297
REMARK  126  A    between atoms: _300  and  _302
REMARK  127  A    between atoms: _302  and  _303
REMARK  128  A    between atoms: _302  and  _305
REMARK  129  A    between atoms: _305  and  _306
REMARK  130  A    between atoms: _306  and  _307
REMARK  131  A    between atoms: _312  and  _314
REMARK  132  A    between atoms: _314  and  _315
REMARK  133  A    between atoms: _314  and  _317
REMARK  134  A    between atoms: _317  and  _318
REMARK  135  A    between atoms: _321  and  _323
REMARK  136  A    between atoms: _323  and  _324
REMARK  137  A    between atoms: _323  and  _326
REMARK  138  A    between atoms: _326  and  _327
REMARK  139  A    between atoms: _327  and  _328
REMARK  140  A    between atoms: _331  and  _332
REMARK  141  A    between atoms: _337  and  _339
REMARK  142  A    between atoms: _339  and  _340
REMARK  143  A    between atoms: _339  and  _342
REMARK  144  A    between atoms: _342  and  _343
REMARK  145  A    between atoms: _349  and  _351
REMARK  146  A    between atoms: _351  and  _352
REMARK  147  A    between atoms: _354  and  _356
REMARK  148  A    between atoms: _356  and  _357
REMARK  149  A    between atoms: _356  and  _359
REMARK  150  A    between atoms: _361  and  _363
REMARK  151  A    between atoms: _363  and  _364
REMARK  152  A    between atoms: _363  and  _366
REMARK  153  A    between atoms: _366  and  _367
REMARK  154  A    between atoms: _370  and  _372
REMARK  155  A    between atoms: _372  and  _373
REMARK  156  A    between atoms: _372  and  _375
REMARK  157  A    between atoms: _375  and  _376
REMARK  158  A    between atoms: _379  and  _381
REMARK  159  A    between atoms: _381  and  _382
REMARK  160  A    between atoms: _381  and  _384
REMARK  161  A    between atoms: _384  and  _385
REMARK  162  A    between atoms: _388  and  _390
REMARK  163  A    between atoms: _390  and  _391
REMARK  164  A    between atoms: _390  and  _393
REMARK  165  A    between atoms: _393  and  _394
REMARK  166  A    between atoms: _399  and  _400
REMARK  167  A    between atoms: _402  and  _404
REMARK  168  A    between atoms: _404  and  _405
REMARK  169  A    between atoms: _404  and  _407
REMARK  170  A    between atoms: _407  and  _408
REMARK  171  A    between atoms: _408  and  _409
REMARK  172  A    between atoms: _409  and  _410
REMARK  173  A    between atoms: _419  and  _421
REMARK  174  A    between atoms: _421  and  _422
REMARK  175  A    between atoms: _421  and  _424
REMARK  176  A    between atoms: _424  and  _425
REMARK  177  A    between atoms: _428  and  _430
REMARK  178  A    between atoms: _430  and  _431
REMARK  179  A    between atoms: _430  and  _433
REMARK  180  A    between atoms: _433  and  _434
REMARK  181  A    between atoms: _439  and  _441
REMARK  182  A    between atoms: _441  and  _442
REMARK  183  A    between atoms: _445  and  _447
REMARK  184  A    between atoms: _447  and  _448
REMARK  185  A    between atoms: _447  and  _450
REMARK  186  A    between atoms: _450  and  _451
REMARK  187  A    between atoms: _451  and  _452
REMARK  188  A    between atoms: _452  and  _453
REMARK  189  A    between atoms: _462  and  _464
REMARK  190  A    between atoms: _464  and  _465
REMARK  191  A    between atoms: _464  and  _467
REMARK  192  A    between atoms: _467  and  _468
REMARK  193  A    between atoms: _473  and  _475
REMARK  194  A    between atoms: _475  and  _476
REMARK  195  A    between atoms: _475  and  _478
REMARK  196  A    between atoms: _481  and  _483
REMARK  197  A    between atoms: _483  and  _484
REMARK  198  A    between atoms: _483  and  _486
REMARK  199  A    between atoms: _486  and  _487
REMARK  200  A    between atoms: _490  and  _492
REMARK  201  A    between atoms: _492  and  _493
REMARK  202  A    between atoms: _492  and  _495
REMARK  203  A    between atoms: _498  and  _500
REMARK  204  A    between atoms: _500  and  _501
REMARK  205  A    between atoms: _500  and  _503
REMARK  206  A    between atoms: _503  and  _504
REMARK  207  A    between atoms: _504  and  _505
REMARK  208  A    between atoms: _505  and  _506
REMARK  209  A    between atoms: _506  and  _507
REMARK  210  A    between atoms: _511  and  _513
REMARK  211  A    between atoms: _513  and  _514
REMARK  212  A    between atoms: _513  and  _516
REMARK  213  A    between atoms: _516  and  _517
REMARK  214  A    between atoms: _520  and  _522
REMARK  215  A    between atoms: _522  and  _523
REMARK  216  A    between atoms: _522  and  _525
REMARK  217  A    between atoms: _525  and  _526
REMARK  218  A    between atoms: _529  and  _531
REMARK  219  A    between atoms: _531  and  _532
REMARK  220  A    between atoms: _531  and  _534
REMARK  221  A    between atoms: _534  and  _535
REMARK  222  A    between atoms: _538  and  _540
REMARK  223  A    between atoms: _540  and  _541
REMARK  224  A    between atoms: _540  and  _543
REMARK  225  A    between atoms: _543  and  _544
REMARK  226  A    between atoms: _550  and  _552
REMARK  227  A    between atoms: _552  and  _553
REMARK  228  A    between atoms: _555  and  _557
REMARK  229  A    between atoms: _557  and  _558
REMARK  230  A    between atoms: _557  and  _560
REMARK  231  A    between atoms: _560  and  _561
REMARK  232  A    between atoms: _564  and  _566
REMARK  233  A    between atoms: _566  and  _567
REMARK  234  A    between atoms: _570  and  _572
REMARK  235  A    between atoms: _572  and  _573
REMARK  236  A    between atoms: _572  and  _575
REMARK  237  A    between atoms: _575  and  _576
REMARK  238  A    between atoms: _586  and  _588
REMARK  239  A    between atoms: _588  and  _589
REMARK  240  A    between atoms: _588  and  _591
REMARK  241  A    between atoms: _591  and  _592
REMARK  242  A    between atoms: _592  and  _593
REMARK  243  A    between atoms: _596  and  _598
REMARK  244  A    between atoms: _598  and  _599
REMARK  245  A    between atoms: _601  and  _603
REMARK  246  A    between atoms: _603  and  _604
REMARK  247  A    between atoms: _603  and  _606
REMARK  248  A    between atoms: _606  and  _607
REMARK  249  A    between atoms: _610  and  _612
REMARK  250  A    between atoms: _612  and  _613
REMARK  251  A    between atoms: _612  and  _615
REMARK  252  A    between atoms: _615  and  _616
REMARK  253  A    between atoms: _616  and  _617
REMARK                            x       y       z     vdW  Elec       q    Type
REMARK                         _______ _______ _______ _____ _____    ______ ____
ROOT
ATOM      1  CG  TRP A   1      28.632  43.586  35.456  0.00  0.00    -0.002 A 
ATOM      2  CD1 TRP A   1      27.515  43.968  34.768  0.00  0.00    +0.068 A 
ATOM      3  NE1 TRP A   1      27.309  43.131  33.689  0.00  0.00    -0.352 N 
ATOM      4  CE2 TRP A   1      28.302  42.187  33.661  0.00  0.00    +0.056 A 
ATOM      5  CZ2 TRP A   1      28.523  41.132  32.760  0.00  0.00    +0.017 A 
ATOM      6  CH2 TRP A   1      29.619  40.326  32.973  0.00  0.00    +0.001 A 
ATOM      7  CZ3 TRP A   1      30.494  40.547  34.060  0.00  0.00    +0.000 A 
ATOM      8  CE3 TRP A   1      30.273  41.607  34.967  0.00  0.00    +0.001 A 
ATOM      9  HE1 TRP A   1      26.527  43.205  33.008  0.00  0.00    +0.166 HD
ATOM     10  CD2 TRP A   1      29.159  42.442  34.764  0.00  0.00    +0.013 A 
ENDROOT
BRANCH   1  11
ATOM     11  CB  TRP A   1      29.191  44.228  36.695  0.00  0.00    +0.053 C 
BRANCH  11  12
ATOM     12  CA  TRP A   1      30.396  45.128  36.372  0.00  0.00    +0.137 C 
BRANCH  12  13
ATOM     13  N   TRP A   1      31.623  44.335  36.233  0.00  0.00    -0.239 NA
ATOM     14  H   TRP A   1      31.872  43.657  36.981  0.00  0.00    +0.142 HD
ENDBRANCH  12  13
BRANCH  12  15
ATOM     15  C   TRP A   1      30.555  46.142  37.520  0.00  0.00    +0.224 C 
ATOM     16  O   TRP A   1      29.770  47.071  37.642  0.00  0.00    -0.287 OA
ENDBRANCH  12  15
ENDBRANCH  11  12
ENDBRANCH   1  11
TORSDOF 4
REMARK  Name = ../refined-set-2016/1xkk/1xkk_pocket.pdb
REMARK  253 active torsions:
REMARK  status: ('A' for Active; 'I' for Inactive)
REMARK    1  A    between atoms: _1  and  _3
REMARK    2  A    between atoms: _3  and  _4
REMARK    3  A    between atoms: _3  and  _6
REMARK    4  A    between atoms: _9  and  _11
REMARK    5  A    between atoms: _11  and  _12
REMARK    6  A    between atoms: _11  and  _14
REMARK    7  A    between atoms: _14  and  _15
REMARK    8  A    between atoms: _18  and  _20
REMARK    9  A    between atoms: _20  and  _21
REMARK   10  A    between atoms: _23  and  _25
REMARK   11  A    between atoms: _25  and  _26
REMARK   12  A    between atoms: _25  and  _28
REMARK   13  A    between atoms: _28  and  _29
REMARK   14  A    between atoms: _31  and  _33
REMARK   15  A    between atoms: _33  and  _34
REMARK   16  A    between atoms: _36  and  _38
REMARK   17  A    between atoms: _38  and  _39
REMARK   18  A    between atoms: _38  and  _41
REMARK   19  A    between atoms: _41  and  _42
REMARK   20  A    between atoms: _48  and  _50
REMARK   21  A    between atoms: _50  and  _51
REMARK   22  A    between atoms: _50  and  _53
REMARK   23  A    between atoms: _53  and  _54
REMARK   24  A    between atoms: _57  and  _59
REMARK   25  A    between atoms: _59  and  _60
REMARK   26  A    between atoms: _59  and  _62
REMARK   27  A    between atoms: _65  and  _67
REMARK   28  A    between atoms: _67  and  _68
REMARK   29  A    between atoms: _67  and  _70
REMARK   30  A    between atoms: _70  and  _71
REMARK   31  A    between atoms: _76  and  _77
REMARK   32  A    between atoms: _79  and  _81
REMARK   33  A    between atoms: _81  and  _82
REMARK   34  A    between atoms: _81  and  _84
REMARK   35  A    between atoms: _84  and  _85
REMARK   36  A    between atoms: _85  and  _86
REMARK   37  A    between atoms: _86  and  _87
REMARK   38  A    between atoms: _87  and  _88
REMARK   39  A    between atoms: _92  and  _94
REMARK   40  A    between atoms: _94  and  _95
REMARK   41  A    between atoms: _98  and  _99
REMARK   42  A    between atoms: _104  and  _106
REMARK   43  A    between atoms: _106  and  _107
REMARK   44  A    between atoms: _106  and  _109
REMARK   45  A    between atoms: _112  and  _114
REMARK   46  A    between atoms: _114  and  _115
REMARK   47  A    between atoms: _118  and  _120
REMARK   48  A    between atoms: _120  and  _121
REMARK   49  A    between atoms: _120  and  _123
REMARK   50  A    between atoms: _123  and  _124
REMARK   51  A    between atoms: _127  and  _129
REMARK   52  A    between atoms: _129  and  _130
REMARK   53  A    between atoms: _129  and  _132
REMARK   54  A    between atoms: _132  and  _133
REMARK   55  A    between atoms: _133  and  _134
REMARK   56  A    between atoms: _134  and  _135
REMARK   57  A    between atoms: _135  and  _136
REMARK   58  A    between atoms: _140  and  _142
REMARK   59  A    between atoms: _142  and  _143
REMARK   60  A    between atoms: _142  and  _145
REMARK   61  A    between atoms: _145  and  _146
REMARK   62  A    between atoms: _146  and  _147
REMARK   63  A    between atoms: _150  and  _152
REMARK   64  A    between atoms: _152  and  _153
REMARK   65  A    between atoms: _152  and  _155
REMARK   66  A    between atoms: _155  and  _156
REMARK   67  A    between atoms: _159  and  _161
REMARK   68  A    between atoms: _161  and  _162
REMARK   69  A    between atoms: _161  and  _164
REMARK   70  A    between atoms: _164  and  _165
REMARK   71  A    between atoms: _165  and  _166
REMARK   72  A    between atoms: _169  and  _171
REMARK   73  A    between atoms: _171  and  _172
REMARK   74  A    between atoms: _175  and  _177
REMARK   75  A    between atoms: _177  and  _178
REMARK   76  A    between atoms: _177  and  _180
REMARK   77  A    between atoms: _183  and  _185
REMARK   78  A    between atoms: _185  and  _186
REMARK   79  A    between atoms: _185  and  _188
REMARK   80  A    between atoms: _188  and  _189
REMARK   81  A    between atoms: _189  and  _190
REMARK   82  A    between atoms: _192  and  _194
REMARK   83  A    between atoms: _194  and  _195
REMARK   84  A    between atoms: _198  and  _200
REMARK   85  A    between atoms: _200  and  _201
REMARK   86  A    between atoms: _200  and  _203
REMARK   87  A    between atoms: _206  and  _208
REMARK   88  A    between atoms: _208  and  _209
REMARK   89  A    between atoms: _208  and  _211
REMARK   90  A    between atoms: _214  and  _216
REMARK   91  A    between atoms: _216  and  _217
REMARK   92  A    between atoms: _216  and  _219
REMARK   93  A    between atoms: _221  and  _223
REMARK   94  A    between atoms: _223  and  _224
REMARK   95  A    between atoms: _223  and  _226
REMARK   96  A    between atoms: _226  and  _227
REMARK   97  A    between atoms: _227  and  _228
REMARK   98  A    between atoms: _228  and  _229
REMARK   99  A    between atoms: _238  and  _240
REMARK  100  A    between atoms: _240  and  _241
REMARK  101  A    between atoms: _240  and  _243
REMARK  102  A    between atoms: _243  and  _244
REMARK  103  A    between atoms: _247  and  _249
REMARK  104  A    between atoms: _249  and  _250
REMARK  105  A    between atoms: _249  and  _252
REMARK  106  A    between atoms: _252  and  _253
REMARK  107  A    between atoms: _256  and  _258
REMARK  108  A    between atoms: _258  and  _259
REMARK  109  A    between atoms: _261  and  _263
REMARK  110  A    between atoms: _263  and  _264
REMARK  111  A    between atoms: _263  and  _266
REMARK  112  A    between atoms: _266  and  _267
REMARK  113  A    between atoms: _267  and  _268
REMARK  114  A    between atoms: _273  and  _275
REMARK  115  A    between atoms: _275  and  _276
REMARK  116  A    between atoms: _275  and  _278
REMARK  117  A    between atoms: _278  and  _279
REMARK  118  A    between atoms: _282  and  _284
REMARK  119  A    between atoms: _284  and  _285
REMARK  120  A    between atoms: _284  and  _287
REMARK  121  A    between atoms: _287  and  _288
REMARK  122  A    between atoms: _291  and  _293
REMARK  123  A    between atoms: _293  and  _294
REMARK  124  A    between atoms: _293  and  _296
REMARK  125  A    between atoms: _296  and  _297
REMARK  126  A    between atoms: _300  and  _302
REMARK  127  A    between atoms: _302  and  _303
REMARK  128  A    between atoms: _302  and  _305
REMARK  129  A    between atoms: _305  and  _306
REMARK  130  A    between atoms: _306  and  _307
REMARK  131  A    between atoms: _312  and  _314
REMARK  132  A    between atoms: _314  and  _315
REMARK  133  A    between atoms: _314  and  _317
REMARK  134  A    between atoms: _317  and  _318
REMARK  135  A    between atoms: _321  and  _323
REMARK  136  A    between atoms: _323  and  _324
REMARK  137  A    between atoms: _323  and  _326
REMARK  138  A    between atoms: _326  and  _327
REMARK  139  A    between atoms: _327  and  _328
REMARK  140  A    between atoms: _331  and  _332
REMARK  141  A    between atoms: _337  and  _339
REMARK  142  A    between atoms: _339  and  _340
REMARK  143  A    between atoms: _339  and  _342
REMARK  144  A    between atoms: _342  and  _343
REMARK  145  A    between atoms: _349  and  _351
REMARK  146  A    between atoms: _351  and  _352
REMARK  147  A    between atoms: _354  and  _356
REMARK  148  A    between atoms: _356  and  _357
REMARK  149  A    between atoms: _356  and  _359
REMARK  150  A    between atoms: _361  and  _363
REMARK  151  A    between atoms: _363  and  _364
REMARK  152  A    between atoms: _363  and  _366
REMARK  153  A    between atoms: _366  and  _367
REMARK  154  A    between atoms: _370  and  _372
REMARK  155  A    between atoms: _372  and  _373
REMARK  156  A    between atoms: _372  and  _375
REMARK  157  A    between atoms: _375  and  _376
REMARK  158  A    between atoms: _379  and  _381
REMARK  159  A    between atoms: _381  and  _382
REMARK  160  A    between atoms: _381  and  _384
REMARK  161  A    between atoms: _384  and  _385
REMARK  162  A    between atoms: _388  and  _390
REMARK  163  A    between atoms: _390  and  _391
REMARK  164  A    between atoms: _390  and  _393
REMARK  165  A    between atoms: _393  and  _394
REMARK  166  A    between atoms: _399  and  _400
REMARK  167  A    between atoms: _402  and  _404
REMARK  168  A    between atoms: _404  and  _405
REMARK  169  A    between atoms: _404  and  _407
REMARK  170  A    between atoms: _407  and  _408
REMARK  171  A    between atoms: _408  and  _409
REMARK  172  A    between atoms: _409  and  _410
REMARK  173  A    between atoms: _419  and  _421
REMARK  174  A    between atoms: _421  and  _422
REMARK  175  A    between atoms: _421  and  _424
REMARK  176  A    between atoms: _424  and  _425
REMARK  177  A    between atoms: _428  and  _430
REMARK  178  A    between atoms: _430  and  _431
REMARK  179  A    between atoms: _430  and  _433
REMARK  180  A    between atoms: _433  and  _434
REMARK  181  A    between atoms: _439  and  _441
REMARK  182  A    between atoms: _441  and  _442
REMARK  183  A    between atoms: _445  and  _447
REMARK  184  A    between atoms: _447  and  _448
REMARK  185  A    between atoms: _447  and  _450
REMARK  186  A    between atoms: _450  and  _451
REMARK  187  A    between atoms: _451  and  _452
REMARK  188  A    between atoms: _452  and  _453
REMARK  189  A    between atoms: _462  and  _464
REMARK  190  A    between atoms: _464  and  _465
REMARK  191  A    between atoms: _464  and  _467
REMARK  192  A    between atoms: _467  and  _468
REMARK  193  A    between atoms: _473  and  _475
REMARK  194  A    between atoms: _475  and  _476
REMARK  195  A    between atoms: _475  and  _478
REMARK  196  A    between atoms: _481  and  _483
REMARK  197  A    between atoms: _483  and  _484
REMARK  198  A    between atoms: _483  and  _486
REMARK  199  A    between atoms: _486  and  _487
REMARK  200  A    between atoms: _490  and  _492
REMARK  201  A    between atoms: _492  and  _493
REMARK  202  A    between atoms: _492  and  _495
REMARK  203  A    between atoms: _498  and  _500
REMARK  204  A    between atoms: _500  and  _501
REMARK  205  A    between atoms: _500  and  _503
REMARK  206  A    between atoms: _503  and  _504
REMARK  207  A    between atoms: _504  and  _505
REMARK  208  A    between atoms: _505  and  _506
REMARK  209  A    between atoms: _506  and  _507
REMARK  210  A    between atoms: _511  and  _513
REMARK  211  A    between atoms: _513  and  _514
REMARK  212  A    between atoms: _513  and  _516
REMARK  213  A    between atoms: _516  and  _517
REMARK  214  A    between atoms: _520  and  _522
REMARK  215  A    between atoms: _522  and  _523
REMARK  216  A    between atoms: _522  and  _525
REMARK  217  A    between atoms: _525  and  _526
REMARK  218  A    between atoms: _529  and  _531
REMARK  219  A    between atoms: _531  and  _532
REMARK  220  A    between atoms: _531  and  _534
REMARK  221  A    between atoms: _534  and  _535
REMARK  222  A    between atoms: _538  and  _540
REMARK  223  A    between atoms: _540  and  _541
REMARK  224  A    between atoms: _540  and  _543
REMARK  225  A    between atoms: _543  and  _544
REMARK  226  A    between atoms: _550  and  _552
REMARK  227  A    between atoms: _552  and  _553
REMARK  228  A    between atoms: _555  and  _557
REMARK  229  A    between atoms: _557  and  _558
REMARK  230  A    between atoms: _557  and  _560
REMARK  231  A    between atoms: _560  and  _561
REMARK  232  A    between atoms: _564  and  _566
REMARK  233  A    between atoms: _566  and  _567
REMARK  234  A    between atoms: _570  and  _572
REMARK  235  A    between atoms: _572  and  _573
REMARK  236  A    between atoms: _572  and  _575
REMARK  237  A    between atoms: _575  and  _576
REMARK  238  A    between atoms: _586  and  _588
REMARK  239  A    between atoms: _588  and  _589
REMARK  240  A    between atoms: _588  and  _591
REMARK  241  A    between atoms: _591  and  _592
REMARK  242  A    between atoms: _592  and  _593
REMARK  243  A    between atoms: _596  and  _598
REMARK  244  A    between atoms: _598  and  _599
REMARK  245  A    between atoms: _601  and  _603
REMARK  246  A    between atoms: _603  and  _604
REMARK  247  A    between atoms: _603  and  _606
REMARK  248  A    between atoms: _606  and  _607
REMARK  249  A    between atoms: _610  and  _612
REMARK  250  A    between atoms: _612  and  _613
REMARK  251  A    between atoms: _612  and  _615
REMARK  252  A    between atoms: _615  and  _616
REMARK  253  A    between atoms: _616  and  _617
REMARK                            x       y       z     vdW  Elec       q    Type
REMARK                         _______ _______ _______ _____ _____    ______ ____
ROOT
ATOM      1  CA  GLU A   1      25.315  44.445  27.353  0.00  0.00    +0.134 C 
ENDROOT
BRANCH   1   2
ATOM      2  N   GLU A   1      25.618  45.838  27.704  0.00  0.00    -0.239 NA
ATOM      3  H   GLU A   1      25.596  46.123  28.704  0.00  0.00    +0.142 HD
ENDBRANCH   1   2
BRANCH   1   4
ATOM      4  C   GLU A   1      24.097  44.364  26.434  0.00  0.00    +0.224 C 
ATOM      5  O   GLU A   1      24.069  43.570  25.503  0.00  0.00    -0.287 OA
ENDBRANCH   1   4
BRANCH   1   6
ATOM      6  CB  GLU A   1      25.011  43.605  28.593  0.00  0.00    +0.037 C 
BRANCH   6   7
ATOM      7  CG  GLU A   1      26.218  43.445  29.477  0.00  0.00    +0.116 C 
BRANCH   7   8
ATOM      8  CD  GLU A   1      25.817  42.574  30.660  0.00  0.00    +0.365 C 
ATOM      9  OE2 GLU A   1      25.524  43.130  31.746  0.00  0.00    -0.246 OA
ATOM     10  OE1 GLU A   1      25.776  41.332  30.502  0.00  0.00    -0.246 OA
ENDBRANCH   7   8
ENDBRANCH   6   7
ENDBRANCH   1   6
TORSDOF 5
REMARK  Name = ../refined-set-2016/1xkk/1xkk_pocket.pdb
REMARK  253 active torsions:
REMARK  status: ('A' for Active; 'I' for Inactive)
REMARK    1  A    between atoms: _1  and  _3
REMARK    2  A    between atoms: _3  and  _4
REMARK    3  A    between atoms: _3  and  _6
REMARK    4  A    between atoms: _9  and  _11
REMARK    5  A    between atoms: _11  and  _12
REMARK    6  A    between atoms: _11  and  _14
REMARK    7  A    between atoms: _14  and  _15
REMARK    8  A    between atoms: _18  and  _20
REMARK    9  A    between atoms: _20  and  _21
REMARK   10  A    between atoms: _23  and  _25
REMARK   11  A    between atoms: _25  and  _26
REMARK   12  A    between atoms: _25  and  _28
REMARK   13  A    between atoms: _28  and  _29
REMARK   14  A    between atoms: _31  and  _33
REMARK   15  A    between atoms: _33  and  _34
REMARK   16  A    between atoms: _36  and  _38
REMARK   17  A    between atoms: _38  and  _39
REMARK   18  A    between atoms: _38  and  _41
REMARK   19  A    between atoms: _41  and  _42
REMARK   20  A    between atoms: _48  and  _50
REMARK   21  A    between atoms: _50  and  _51
REMARK   22  A    between atoms: _50  and  _53
REMARK   23  A    between atoms: _53  and  _54
REMARK   24  A    between atoms: _57  and  _59
REMARK   25  A    between atoms: _59  and  _60
REMARK   26  A    between atoms: _59  and  _62
REMARK   27  A    between atoms: _65  and  _67
REMARK   28  A    between atoms: _67  and  _68
REMARK   29  A    between atoms: _67  and  _70
REMARK   30  A    between atoms: _70  and  _71
REMARK   31  A    between atoms: _76  and  _77
REMARK   32  A    between atoms: _79  and  _81
REMARK   33  A    between atoms: _81  and  _82
REMARK   34  A    between atoms: _81  and  _84
REMARK   35  A    between atoms: _84  and  _85
REMARK   36  A    between atoms: _85  and  _86
REMARK   37  A    between atoms: _86  and  _87
REMARK   38  A    between atoms: _87  and  _88
REMARK   39  A    between atoms: _92  and  _94
REMARK   40  A    between atoms: _94  and  _95
REMARK   41  A    between atoms: _98  and  _99
REMARK   42  A    between atoms: _104  and  _106
REMARK   43  A    between atoms: _106  and  _107
REMARK   44  A    between atoms: _106  and  _109
REMARK   45  A    between atoms: _112  and  _114
REMARK   46  A    between atoms: _114  and  _115
REMARK   47  A    between atoms: _118  and  _120
REMARK   48  A    between atoms: _120  and  _121
REMARK   49  A    between atoms: _120  and  _123
REMARK   50  A    between atoms: _123  and  _124
REMARK   51  A    between atoms: _127  and  _129
REMARK   52  A    between atoms: _129  and  _130
REMARK   53  A    between atoms: _129  and  _132
REMARK   54  A    between atoms: _132  and  _133
REMARK   55  A    between atoms: _133  and  _134
REMARK   56  A    between atoms: _134  and  _135
REMARK   57  A    between atoms: _135  and  _136
REMARK   58  A    between atoms: _140  and  _142
REMARK   59  A    between atoms: _142  and  _143
REMARK   60  A    between atoms: _142  and  _145
REMARK   61  A    between atoms: _145  and  _146
REMARK   62  A    between atoms: _146  and  _147
REMARK   63  A    between atoms: _150  and  _152
REMARK   64  A    between atoms: _152  and  _153
REMARK   65  A    between atoms: _152  and  _155
REMARK   66  A    between atoms: _155  and  _156
REMARK   67  A    between atoms: _159  and  _161
REMARK   68  A    between atoms: _161  and  _162
REMARK   69  A    between atoms: _161  and  _164
REMARK   70  A    between atoms: _164  and  _165
REMARK   71  A    between atoms: _165  and  _166
REMARK   72  A    between atoms: _169  and  _171
REMARK   73  A    between atoms: _171  and  _172
REMARK   74  A    between atoms: _175  and  _177
REMARK   75  A    between atoms: _177  and  _178
REMARK   76  A    between atoms: _177  and  _180
REMARK   77  A    between atoms: _183  and  _185
REMARK   78  A    between atoms: _185  and  _186
REMARK   79  A    between atoms: _185  and  _188
REMARK   80  A    between atoms: _188  and  _189
REMARK   81  A    between atoms: _189  and  _190
REMARK   82  A    between atoms: _192  and  _194
REMARK   83  A    between atoms: _194  and  _195
REMARK   84  A    between atoms: _198  and  _200
REMARK   85  A    between atoms: _200  and  _201
REMARK   86  A    between atoms: _200  and  _203
REMARK   87  A    between atoms: _206  and  _208
REMARK   88  A    between atoms: _208  and  _209
REMARK   89  A    between atoms: _208  and  _211
REMARK   90  A    between atoms: _214  and  _216
REMARK   91  A    between atoms: _216  and  _217
REMARK   92  A    between atoms: _216  and  _219
REMARK   93  A    between atoms: _221  and  _223
REMARK   94  A    between atoms: _223  and  _224
REMARK   95  A    between atoms: _223  and  _226
REMARK   96  A    between atoms: _226  and  _227
REMARK   97  A    between atoms: _227  and  _228
REMARK   98  A    between atoms: _228  and  _229
REMARK   99  A    between atoms: _238  and  _240
REMARK  100  A    between atoms: _240  and  _241
REMARK  101  A    between atoms: _240  and  _243
REMARK  102  A    between atoms: _243  and  _244
REMARK  103  A    between atoms: _247  and  _249
REMARK  104  A    between atoms: _249  and  _250
REMARK  105  A    between atoms: _249  and  _252
REMARK  106  A    between atoms: _252  and  _253
REMARK  107  A    between atoms: _256  and  _258
REMARK  108  A    between atoms: _258  and  _259
REMARK  109  A    between atoms: _261  and  _263
REMARK  110  A    between atoms: _263  and  _264
REMARK  111  A    between atoms: _263  and  _266
REMARK  112  A    between atoms: _266  and  _267
REMARK  113  A    between atoms: _267  and  _268
REMARK  114  A    between atoms: _273  and  _275
REMARK  115  A    between atoms: _275  and  _276
REMARK  116  A    between atoms: _275  and  _278
REMARK  117  A    between atoms: _278  and  _279
REMARK  118  A    between atoms: _282  and  _284
REMARK  119  A    between atoms: _284  and  _285
REMARK  120  A    between atoms: _284  and  _287
REMARK  121  A    between atoms: _287  and  _288
REMARK  122  A    between atoms: _291  and  _293
REMARK  123  A    between atoms: _293  and  _294
REMARK  124  A    between atoms: _293  and  _296
REMARK  125  A    between atoms: _296  and  _297
REMARK  126  A    between atoms: _300  and  _302
REMARK  127  A    between atoms: _302  and  _303
REMARK  128  A    between atoms: _302  and  _305
REMARK  129  A    between atoms: _305  and  _306
REMARK  130  A    between atoms: _306  and  _307
REMARK  131  A    between atoms: _312  and  _314
REMARK  132  A    between atoms: _314  and  _315
REMARK  133  A    between atoms: _314  and  _317
REMARK  134  A    between atoms: _317  and  _318
REMARK  135  A    between atoms: _321  and  _323
REMARK  136  A    between atoms: _323  and  _324
REMARK  137  A    between atoms: _323  and  _326
REMARK  138  A    between atoms: _326  and  _327
REMARK  139  A    between atoms: _327  and  _328
REMARK  140  A    between atoms: _331  and  _332
REMARK  141  A    between atoms: _337  and  _339
REMARK  142  A    between atoms: _339  and  _340
REMARK  143  A    between atoms: _339  and  _342
REMARK  144  A    between atoms: _342  and  _343
REMARK  145  A    between atoms: _349  and  _351
REMARK  146  A    between atoms: _351  and  _352
REMARK  147  A    between atoms: _354  and  _356
REMARK  148  A    between atoms: _356  and  _357
REMARK  149  A    between atoms: _356  and  _359
REMARK  150  A    between atoms: _361  and  _363
REMARK  151  A    between atoms: _363  and  _364
REMARK  152  A    between atoms: _363  and  _366
REMARK  153  A    between atoms: _366  and  _367
REMARK  154  A    between atoms: _370  and  _372
REMARK  155  A    between atoms: _372  and  _373
REMARK  156  A    between atoms: _372  and  _375
REMARK  157  A    between atoms: _375  and  _376
REMARK  158  A    between atoms: _379  and  _381
REMARK  159  A    between atoms: _381  and  _382
REMARK  160  A    between atoms: _381  and  _384
REMARK  161  A    between atoms: _384  and  _385
REMARK  162  A    between atoms: _388  and  _390
REMARK  163  A    between atoms: _390  and  _391
REMARK  164  A    between atoms: _390  and  _393
REMARK  165  A    between atoms: _393  and  _394
REMARK  166  A    between atoms: _399  and  _400
REMARK  167  A    between atoms: _402  and  _404
REMARK  168  A    between atoms: _404  and  _405
REMARK  169  A    between atoms: _404  and  _407
REMARK  170  A    between atoms: _407  and  _408
REMARK  171  A    between atoms: _408  and  _409
REMARK  172  A    between atoms: _409  and  _410
REMARK  173  A    between atoms: _419  and  _421
REMARK  174  A    between atoms: _421  and  _422
REMARK  175  A    between atoms: _421  and  _424
REMARK  176  A    between atoms: _424  and  _425
REMARK  177  A    between atoms: _428  and  _430
REMARK  178  A    between atoms: _430  and  _431
REMARK  179  A    between atoms: _430  and  _433
REMARK  180  A    between atoms: _433  and  _434
REMARK  181  A    between atoms: _439  and  _441
REMARK  182  A    between atoms: _441  and  _442
REMARK  183  A    between atoms: _445  and  _447
REMARK  184  A    between atoms: _447  and  _448
REMARK  185  A    between atoms: _447  and  _450
REMARK  186  A    between atoms: _450  and  _451
REMARK  187  A    between atoms: _451  and  _452
REMARK  188  A    between atoms: _452  and  _453
REMARK  189  A    between atoms: _462  and  _464
REMARK  190  A    between atoms: _464  and  _465
REMARK  191  A    between atoms: _464  and  _467
REMARK  192  A    between atoms: _467  and  _468
REMARK  193  A    between atoms: _473  and  _475
REMARK  194  A    between atoms: _475  and  _476
REMARK  195  A    between atoms: _475  and  _478
REMARK  196  A    between atoms: _481  and  _483
REMARK  197  A    between atoms: _483  and  _484
REMARK  198  A    between atoms: _483  and  _486
REMARK  199  A    between atoms: _486  and  _487
REMARK  200  A    between atoms: _490  and  _492
REMARK  201  A    between atoms: _492  and  _493
REMARK  202  A    between atoms: _492  and  _495
REMARK  203  A    between atoms: _498  and  _500
REMARK  204  A    between atoms: _500  and  _501
REMARK  205  A    between atoms: _500  and  _503
REMARK  206  A    between atoms: _503  and  _504
REMARK  207  A    between atoms: _504  and  _505
REMARK  208  A    between atoms: _505  and  _506
REMARK  209  A    between atoms: _506  and  _507
REMARK  210  A    between atoms: _511  and  _513
REMARK  211  A    between atoms: _513  and  _514
REMARK  212  A    between atoms: _513  and  _516
REMARK  213  A    between atoms: _516  and  _517
REMARK  214  A    between atoms: _520  and  _522
REMARK  215  A    between atoms: _522  and  _523
REMARK  216  A    between atoms: _522  and  _525
REMARK  217  A    between atoms: _525  and  _526
REMARK  218  A    between atoms: _529  and  _531
REMARK  219  A    between atoms: _531  and  _532
REMARK  220  A    between atoms: _531  and  _534
REMARK  221  A    between atoms: _534  and  _535
REMARK  222  A    between atoms: _538  and  _540
REMARK  223  A    between atoms: _540  and  _541
REMARK  224  A    between atoms: _540  and  _543
REMARK  225  A    between atoms: _543  and  _544
REMARK  226  A    between atoms: _550  and  _552
REMARK  227  A    between atoms: _552  and  _553
REMARK  228  A    between atoms: _555  and  _557
REMARK  229  A    between atoms: _557  and  _558
REMARK  230  A    between atoms: _557  and  _560
REMARK  231  A    between atoms: _560  and  _561
REMARK  232  A    between atoms: _564  and  _566
REMARK  233  A    between atoms: _566  and  _567
REMARK  234  A    between atoms: _570  and  _572
REMARK  235  A    between atoms: _572  and  _573
REMARK  236  A    between atoms: _572  and  _575
REMARK  237  A    between atoms: _575  and  _576
REMARK  238  A    between atoms: _586  and  _588
REMARK  239  A    between atoms: _588  and  _589
REMARK  240  A    between atoms: _588  and  _591
REMARK  241  A    between atoms: _591  and  _592
REMARK  242  A    between atoms: _592  and  _593
REMARK  243  A    between atoms: _596  and  _598
REMARK  244  A    between atoms: _598  and  _599
REMARK  245  A    between atoms: _601  and  _603
REMARK  246  A    between atoms: _603  and  _604
REMARK  247  A    between atoms: _603  and  _606
REMARK  248  A    between atoms: _606  and  _607
REMARK  249  A    between atoms: _610  and  _612
REMARK  250  A    between atoms: _612  and  _613
REMARK  251  A    between atoms: _612  and  _615
REMARK  252  A    between atoms: _615  and  _616
REMARK  253  A    between atoms: _616  and  _617
REMARK                            x       y       z     vdW  Elec       q    Type
REMARK                         _______ _______ _______ _____ _____    ______ ____
ROOT
ATOM      1  CA  GLY A   1      24.966  40.302  24.831  0.00  0.00    +0.156 C 
ENDROOT
BRANCH   1   2
ATOM      2  N   GLY A   1      24.355  41.342  24.024  0.00  0.00    -0.238 NA
ATOM      3  H   GLY A   1      24.350  42.327  24.358  0.00  0.00    +0.142 HD
ENDBRANCH   1   2
BRANCH   1   4
ATOM      4  C   GLY A   1      26.470  40.078  24.828  0.00  0.00    +0.226 C 
ATOM      5  O   GLY A   1      26.919  39.022  25.271  0.00  0.00    -0.287 OA
ENDBRANCH   1   4
TORSDOF 2
REMARK  Name = ../refined-set-2016/1xkk/1xkk_pocket.pdb
REMARK  253 active torsions:
REMARK  status: ('A' for Active; 'I' for Inactive)
REMARK    1  A    between atoms: _1  and  _3
REMARK    2  A    between atoms: _3  and  _4
REMARK    3  A    between atoms: _3  and  _6
REMARK    4  A    between atoms: _9  and  _11
REMARK    5  A    between atoms: _11  and  _12
REMARK    6  A    between atoms: _11  and  _14
REMARK    7  A    between atoms: _14  and  _15
REMARK    8  A    between atoms: _18  and  _20
REMARK    9  A    between atoms: _20  and  _21
REMARK   10  A    between atoms: _23  and  _25
REMARK   11  A    between atoms: _25  and  _26
REMARK   12  A    between atoms: _25  and  _28
REMARK   13  A    between atoms: _28  and  _29
REMARK   14  A    between atoms: _31  and  _33
REMARK   15  A    between atoms: _33  and  _34
REMARK   16  A    between atoms: _36  and  _38
REMARK   17  A    between atoms: _38  and  _39
REMARK   18  A    between atoms: _38  and  _41
REMARK   19  A    between atoms: _41  and  _42
REMARK   20  A    between atoms: _48  and  _50
REMARK   21  A    between atoms: _50  and  _51
REMARK   22  A    between atoms: _50  and  _53
REMARK   23  A    between atoms: _53  and  _54
REMARK   24  A    between atoms: _57  and  _59
REMARK   25  A    between atoms: _59  and  _60
REMARK   26  A    between atoms: _59  and  _62
REMARK   27  A    between atoms: _65  and  _67
REMARK   28  A    between atoms: _67  and  _68
REMARK   29  A    between atoms: _67  and  _70
REMARK   30  A    between atoms: _70  and  _71
REMARK   31  A    between atoms: _76  and  _77
REMARK   32  A    between atoms: _79  and  _81
REMARK   33  A    between atoms: _81  and  _82
REMARK   34  A    between atoms: _81  and  _84
REMARK   35  A    between atoms: _84  and  _85
REMARK   36  A    between atoms: _85  and  _86
REMARK   37  A    between atoms: _86  and  _87
REMARK   38  A    between atoms: _87  and  _88
REMARK   39  A    between atoms: _92  and  _94
REMARK   40  A    between atoms: _94  and  _95
REMARK   41  A    between atoms: _98  and  _99
REMARK   42  A    between atoms: _104  and  _106
REMARK   43  A    between atoms: _106  and  _107
REMARK   44  A    between atoms: _106  and  _109
REMARK   45  A    between atoms: _112  and  _114
REMARK   46  A    between atoms: _114  and  _115
REMARK   47  A    between atoms: _118  and  _120
REMARK   48  A    between atoms: _120  and  _121
REMARK   49  A    between atoms: _120  and  _123
REMARK   50  A    between atoms: _123  and  _124
REMARK   51  A    between atoms: _127  and  _129
REMARK   52  A    between atoms: _129  and  _130
REMARK   53  A    between atoms: _129  and  _132
REMARK   54  A    between atoms: _132  and  _133
REMARK   55  A    between atoms: _133  and  _134
REMARK   56  A    between atoms: _134  and  _135
REMARK   57  A    between atoms: _135  and  _136
REMARK   58  A    between atoms: _140  and  _142
REMARK   59  A    between atoms: _142  and  _143
REMARK   60  A    between atoms: _142  and  _145
REMARK   61  A    between atoms: _145  and  _146
REMARK   62  A    between atoms: _146  and  _147
REMARK   63  A    between atoms: _150  and  _152
REMARK   64  A    between atoms: _152  and  _153
REMARK   65  A    between atoms: _152  and  _155
REMARK   66  A    between atoms: _155  and  _156
REMARK   67  A    between atoms: _159  and  _161
REMARK   68  A    between atoms: _161  and  _162
REMARK   69  A    between atoms: _161  and  _164
REMARK   70  A    between atoms: _164  and  _165
REMARK   71  A    between atoms: _165  and  _166
REMARK   72  A    between atoms: _169  and  _171
REMARK   73  A    between atoms: _171  and  _172
REMARK   74  A    between atoms: _175  and  _177
REMARK   75  A    between atoms: _177  and  _178
REMARK   76  A    between atoms: _177  and  _180
REMARK   77  A    between atoms: _183  and  _185
REMARK   78  A    between atoms: _185  and  _186
REMARK   79  A    between atoms: _185  and  _188
REMARK   80  A    between atoms: _188  and  _189
REMARK   81  A    between atoms: _189  and  _190
REMARK   82  A    between atoms: _192  and  _194
REMARK   83  A    between atoms: _194  and  _195
REMARK   84  A    between atoms: _198  and  _200
REMARK   85  A    between atoms: _200  and  _201
REMARK   86  A    between atoms: _200  and  _203
REMARK   87  A    between atoms: _206  and  _208
REMARK   88  A    between atoms: _208  and  _209
REMARK   89  A    between atoms: _208  and  _211
REMARK   90  A    between atoms: _214  and  _216
REMARK   91  A    between atoms: _216  and  _217
REMARK   92  A    between atoms: _216  and  _219
REMARK   93  A    between atoms: _221  and  _223
REMARK   94  A    between atoms: _223  and  _224
REMARK   95  A    between atoms: _223  and  _226
REMARK   96  A    between atoms: _226  and  _227
REMARK   97  A    between atoms: _227  and  _228
REMARK   98  A    between atoms: _228  and  _229
REMARK   99  A    between atoms: _238  and  _240
REMARK  100  A    between atoms: _240  and  _241
REMARK  101  A    between atoms: _240  and  _243
REMARK  102  A    between atoms: _243  and  _244
REMARK  103  A    between atoms: _247  and  _249
REMARK  104  A    between atoms: _249  and  _250
REMARK  105  A    between atoms: _249  and  _252
REMARK  106  A    between atoms: _252  and  _253
REMARK  107  A    between atoms: _256  and  _258
REMARK  108  A    between atoms: _258  and  _259
REMARK  109  A    between atoms: _261  and  _263
REMARK  110  A    between atoms: _263  and  _264
REMARK  111  A    between atoms: _263  and  _266
REMARK  112  A    between atoms: _266  and  _267
REMARK  113  A    between atoms: _267  and  _268
REMARK  114  A    between atoms: _273  and  _275
REMARK  115  A    between atoms: _275  and  _276
REMARK  116  A    between atoms: _275  and  _278
REMARK  117  A    between atoms: _278  and  _279
REMARK  118  A    between atoms: _282  and  _284
REMARK  119  A    between atoms: _284  and  _285
REMARK  120  A    between atoms: _284  and  _287
REMARK  121  A    between atoms: _287  and  _288
REMARK  122  A    between atoms: _291  and  _293
REMARK  123  A    between atoms: _293  and  _294
REMARK  124  A    between atoms: _293  and  _296
REMARK  125  A    between atoms: _296  and  _297
REMARK  126  A    between atoms: _300  and  _302
REMARK  127  A    between atoms: _302  and  _303
REMARK  128  A    between atoms: _302  and  _305
REMARK  129  A    between atoms: _305  and  _306
REMARK  130  A    between atoms: _306  and  _307
REMARK  131  A    between atoms: _312  and  _314
REMARK  132  A    between atoms: _314  and  _315
REMARK  133  A    between atoms: _314  and  _317
REMARK  134  A    between atoms: _317  and  _318
REMARK  135  A    between atoms: _321  and  _323
REMARK  136  A    between atoms: _323  and  _324
REMARK  137  A    between atoms: _323  and  _326
REMARK  138  A    between atoms: _326  and  _327
REMARK  139  A    between atoms: _327  and  _328
REMARK  140  A    between atoms: _331  and  _332
REMARK  141  A    between atoms: _337  and  _339
REMARK  142  A    between atoms: _339  and  _340
REMARK  143  A    between atoms: _339  and  _342
REMARK  144  A    between atoms: _342  and  _343
REMARK  145  A    between atoms: _349  and  _351
REMARK  146  A    between atoms: _351  and  _352
REMARK  147  A    between atoms: _354  and  _356
REMARK  148  A    between atoms: _356  and  _357
REMARK  149  A    between atoms: _356  and  _359
REMARK  150  A    between atoms: _361  and  _363
REMARK  151  A    between atoms: _363  and  _364
REMARK  152  A    between atoms: _363  and  _366
REMARK  153  A    between atoms: _366  and  _367
REMARK  154  A    between atoms: _370  and  _372
REMARK  155  A    between atoms: _372  and  _373
REMARK  156  A    between atoms: _372  and  _375
REMARK  157  A    between atoms: _375  and  _376
REMARK  158  A    between atoms: _379  and  _381
REMARK  159  A    between atoms: _381  and  _382
REMARK  160  A    between atoms: _381  and  _384
REMARK  161  A    between atoms: _384  and  _385
REMARK  162  A    between atoms: _388  and  _390
REMARK  163  A    between atoms: _390  and  _391
REMARK  164  A    between atoms: _390  and  _393
REMARK  165  A    between atoms: _393  and  _394
REMARK  166  A    between atoms: _399  and  _400
REMARK  167  A    between atoms: _402  and  _404
REMARK  168  A    between atoms: _404  and  _405
REMARK  169  A    between atoms: _404  and  _407
REMARK  170  A    between atoms: _407  and  _408
REMARK  171  A    between atoms: _408  and  _409
REMARK  172  A    between atoms: _409  and  _410
REMARK  173  A    between atoms: _419  and  _421
REMARK  174  A    between atoms: _421  and  _422
REMARK  175  A    between atoms: _421  and  _424
REMARK  176  A    between atoms: _424  and  _425
REMARK  177  A    between atoms: _428  and  _430
REMARK  178  A    between atoms: _430  and  _431
REMARK  179  A    between atoms: _430  and  _433
REMARK  180  A    between atoms: _433  and  _434
REMARK  181  A    between atoms: _439  and  _441
REMARK  182  A    between atoms: _441  and  _442
REMARK  183  A    between atoms: _445  and  _447
REMARK  184  A    between atoms: _447  and  _448
REMARK  185  A    between atoms: _447  and  _450
REMARK  186  A    between atoms: _450  and  _451
REMARK  187  A    between atoms: _451  and  _452
REMARK  188  A    between atoms: _452  and  _453
REMARK  189  A    between atoms: _462  and  _464
REMARK  190  A    between atoms: _464  and  _465
REMARK  191  A    between atoms: _464  and  _467
REMARK  192  A    between atoms: _467  and  _468
REMARK  193  A    between atoms: _473  and  _475
REMARK  194  A    between atoms: _475  and  _476
REMARK  195  A    between atoms: _475  and  _478
REMARK  196  A    between atoms: _481  and  _483
REMARK  197  A    between atoms: _483  and  _484
REMARK  198  A    between atoms: _483  and  _486
REMARK  199  A    between atoms: _486  and  _487
REMARK  200  A    between atoms: _490  and  _492
REMARK  201  A    between atoms: _492  and  _493
REMARK  202  A    between atoms: _492  and  _495
REMARK  203  A    between atoms: _498  and  _500
REMARK  204  A    between atoms: _500  and  _501
REMARK  205  A    between atoms: _500  and  _503
REMARK  206  A    between atoms: _503  and  _504
REMARK  207  A    between atoms: _504  and  _505
REMARK  208  A    between atoms: _505  and  _506
REMARK  209  A    between atoms: _506  and  _507
REMARK  210  A    between atoms: _511  and  _513
REMARK  211  A    between atoms: _513  and  _514
REMARK  212  A    between atoms: _513  and  _516
REMARK  213  A    between atoms: _516  and  _517
REMARK  214  A    between atoms: _520  and  _522
REMARK  215  A    between atoms: _522  and  _523
REMARK  216  A    between atoms: _522  and  _525
REMARK  217  A    between atoms: _525  and  _526
REMARK  218  A    between atoms: _529  and  _531
REMARK  219  A    between atoms: _531  and  _532
REMARK  220  A    between atoms: _531  and  _534
REMARK  221  A    between atoms: _534  and  _535
REMARK  222  A    between atoms: _538  and  _540
REMARK  223  A    between atoms: _540  and  _541
REMARK  224  A    between atoms: _540  and  _543
REMARK  225  A    between atoms: _543  and  _544
REMARK  226  A    between atoms: _550  and  _552
REMARK  227  A    between atoms: _552  and  _553
REMARK  228  A    between atoms: _555  and  _557
REMARK  229  A    between atoms: _557  and  _558
REMARK  230  A    between atoms: _557  and  _560
REMARK  231  A    between atoms: _560  and  _561
REMARK  232  A    between atoms: _564  and  _566
REMARK  233  A    between atoms: _566  and  _567
REMARK  234  A    between atoms: _570  and  _572
REMARK  235  A    between atoms: _572  and  _573
REMARK  236  A    between atoms: _572  and  _575
REMARK  237  A    between atoms: _575  and  _576
REMARK  238  A    between atoms: _586  and  _588
REMARK  239  A    between atoms: _588  and  _589
REMARK  240  A    between atoms: _588  and  _591
REMARK  241  A    between atoms: _591  and  _592
REMARK  242  A    between atoms: _592  and  _593
REMARK  243  A    between atoms: _596  and  _598
REMARK  244  A    between atoms: _598  and  _599
REMARK  245  A    between atoms: _601  and  _603
REMARK  246  A    between atoms: _603  and  _604
REMARK  247  A    between atoms: _603  and  _606
REMARK  248  A    between atoms: _606  and  _607
REMARK  249  A    between atoms: _610  and  _612
REMARK  250  A    between atoms: _612  and  _613
REMARK  251  A    between atoms: _612  and  _615
REMARK  252  A    between atoms: _615  and  _616
REMARK  253  A    between atoms: _616  and  _617
REMARK                            x       y       z     vdW  Elec       q    Type
REMARK                         _______ _______ _______ _____ _____    ______ ____
ROOT
ATOM      1  C   LEU A   1      11.434  25.529  28.702  0.00  0.00    +0.238 C 
ATOM      2  O   LEU A   1      12.049  24.694  29.371  0.00  0.00    -0.274 OA
ATOM      3  N   MET A   2      10.503  26.327  29.217  0.00  0.00    -0.298 N 
ATOM      4  H   MET A   2       9.984  26.967  28.582  0.00  0.00    +0.150 HD
ENDROOT
BRANCH   1   5
ATOM      5  CA  LEU A   1      11.690  25.676  27.199  0.00  0.00    +0.145 C 
BRANCH   5   6
ATOM      6  N   LEU A   1      10.500  25.375  26.424  0.00  0.00    -0.238 NA
ATOM      7  H   LEU A   1       9.934  26.160  26.043  0.00  0.00    +0.142 HD
ENDBRANCH   5   6
BRANCH   5   8
ATOM      8  CB  LEU A   1      12.152  27.106  26.883  0.00  0.00    +0.026 C 
BRANCH   8   9
ATOM      9  CG  LEU A   1      13.579  27.345  27.398  0.00  0.00    +0.002 C 
ATOM     10  CD2 LEU A   1      13.917  28.837  27.305  0.00  0.00    +0.000 C 
ATOM     11  CD1 LEU A   1      14.574  26.532  26.570  0.00  0.00    +0.000 C 
ENDBRANCH   8   9
ENDBRANCH   5   8
ENDBRANCH   1   5
BRANCH   3  12
ATOM     12  CA  MET A   2      10.182  26.338  30.643  0.00  0.00    +0.138 C 
BRANCH  12  13
ATOM     13  C   MET A   2       9.085  25.399  31.136  0.00  0.00    +0.227 C 
ATOM     14  O   MET A   2       9.126  24.968  32.289  0.00  0.00    -0.286 OA
ENDBRANCH  12  13
BRANCH  12  15
ATOM     15  CB  MET A   2       9.836  27.764  31.069  0.00  0.00    +0.039 C 
BRANCH  15  16
ATOM     16  CG  MET A   2      10.946  28.686  30.620  0.00  0.00    +0.060 C 
BRANCH  16  17
ATOM     17  SD  MET A   2      12.477  28.186  31.409  0.00  0.00    -0.139 S 
ATOM     18  CE  MET A   2      12.639  29.477  32.610  0.00  0.00    +0.069 C 
ENDBRANCH  16  17
ENDBRANCH  15  16
ENDBRANCH  12  15
ENDBRANCH   3  12
TORSDOF 9
REMARK  Name = ../refined-set-2016/1xkk/1xkk_pocket.pdb
REMARK  253 active torsions:
REMARK  status: ('A' for Active; 'I' for Inactive)
REMARK    1  A    between atoms: _1  and  _3
REMARK    2  A    between atoms: _3  and  _4
REMARK    3  A    between atoms: _3  and  _6
REMARK    4  A    between atoms: _9  and  _11
REMARK    5  A    between atoms: _11  and  _12
REMARK    6  A    between atoms: _11  and  _14
REMARK    7  A    between atoms: _14  and  _15
REMARK    8  A    between atoms: _18  and  _20
REMARK    9  A    between atoms: _20  and  _21
REMARK   10  A    between atoms: _23  and  _25
REMARK   11  A    between atoms: _25  and  _26
REMARK   12  A    between atoms: _25  and  _28
REMARK   13  A    between atoms: _28  and  _29
REMARK   14  A    between atoms: _31  and  _33
REMARK   15  A    between atoms: _33  and  _34
REMARK   16  A    between atoms: _36  and  _38
REMARK   17  A    between atoms: _38  and  _39
REMARK   18  A    between atoms: _38  and  _41
REMARK   19  A    between atoms: _41  and  _42
REMARK   20  A    between atoms: _48  and  _50
REMARK   21  A    between atoms: _50  and  _51
REMARK   22  A    between atoms: _50  and  _53
REMARK   23  A    between atoms: _53  and  _54
REMARK   24  A    between atoms: _57  and  _59
REMARK   25  A    between atoms: _59  and  _60
REMARK   26  A    between atoms: _59  and  _62
REMARK   27  A    between atoms: _65  and  _67
REMARK   28  A    between atoms: _67  and  _68
REMARK   29  A    between atoms: _67  and  _70
REMARK   30  A    between atoms: _70  and  _71
REMARK   31  A    between atoms: _76  and  _77
REMARK   32  A    between atoms: _79  and  _81
REMARK   33  A    between atoms: _81  and  _82
REMARK   34  A    between atoms: _81  and  _84
REMARK   35  A    between atoms: _84  and  _85
REMARK   36  A    between atoms: _85  and  _86
REMARK   37  A    between atoms: _86  and  _87
REMARK   38  A    between atoms: _87  and  _88
REMARK   39  A    between atoms: _92  and  _94
REMARK   40  A    between atoms: _94  and  _95
REMARK   41  A    between atoms: _98  and  _99
REMARK   42  A    between atoms: _104  and  _106
REMARK   43  A    between atoms: _106  and  _107
REMARK   44  A    between atoms: _106  and  _109
REMARK   45  A    between atoms: _112  and  _114
REMARK   46  A    between atoms: _114  and  _115
REMARK   47  A    between atoms: _118  and  _120
REMARK   48  A    between atoms: _120  and  _121
REMARK   49  A    between atoms: _120  and  _123
REMARK   50  A    between atoms: _123  and  _124
REMARK   51  A    between atoms: _127  and  _129
REMARK   52  A    between atoms: _129  and  _130
REMARK   53  A    between atoms: _129  and  _132
REMARK   54  A    between atoms: _132  and  _133
REMARK   55  A    between atoms: _133  and  _134
REMARK   56  A    between atoms: _134  and  _135
REMARK   57  A    between atoms: _135  and  _136
REMARK   58  A    between atoms: _140  and  _142
REMARK   59  A    between atoms: _142  and  _143
REMARK   60  A    between atoms: _142  and  _145
REMARK   61  A    between atoms: _145  and  _146
REMARK   62  A    between atoms: _146  and  _147
REMARK   63  A    between atoms: _150  and  _152
REMARK   64  A    between atoms: _152  and  _153
REMARK   65  A    between atoms: _152  and  _155
REMARK   66  A    between atoms: _155  and  _156
REMARK   67  A    between atoms: _159  and  _161
REMARK   68  A    between atoms: _161  and  _162
REMARK   69  A    between atoms: _161  and  _164
REMARK   70  A    between atoms: _164  and  _165
REMARK   71  A    between atoms: _165  and  _166
REMARK   72  A    between atoms: _169  and  _171
REMARK   73  A    between atoms: _171  and  _172
REMARK   74  A    between atoms: _175  and  _177
REMARK   75  A    between atoms: _177  and  _178
REMARK   76  A    between atoms: _177  and  _180
REMARK   77  A    between atoms: _183  and  _185
REMARK   78  A    between atoms: _185  and  _186
REMARK   79  A    between atoms: _185  and  _188
REMARK   80  A    between atoms: _188  and  _189
REMARK   81  A    between atoms: _189  and  _190
REMARK   82  A    between atoms: _192  and  _194
REMARK   83  A    between atoms: _194  and  _195
REMARK   84  A    between atoms: _198  and  _200
REMARK   85  A    between atoms: _200  and  _201
REMARK   86  A    between atoms: _200  and  _203
REMARK   87  A    between atoms: _206  and  _208
REMARK   88  A    between atoms: _208  and  _209
REMARK   89  A    between atoms: _208  and  _211
REMARK   90  A    between atoms: _214  and  _216
REMARK   91  A    between atoms: _216  and  _217
REMARK   92  A    between atoms: _216  and  _219
REMARK   93  A    between atoms: _221  and  _223
REMARK   94  A    between atoms: _223  and  _224
REMARK   95  A    between atoms: _223  and  _226
REMARK   96  A    between atoms: _226  and  _227
REMARK   97  A    between atoms: _227  and  _228
REMARK   98  A    between atoms: _228  and  _229
REMARK   99  A    between atoms: _238  and  _240
REMARK  100  A    between atoms: _240  and  _241
REMARK  101  A    between atoms: _240  and  _243
REMARK  102  A    between atoms: _243  and  _244
REMARK  103  A    between atoms: _247  and  _249
REMARK  104  A    between atoms: _249  and  _250
REMARK  105  A    between atoms: _249  and  _252
REMARK  106  A    between atoms: _252  and  _253
REMARK  107  A    between atoms: _256  and  _258
REMARK  108  A    between atoms: _258  and  _259
REMARK  109  A    between atoms: _261  and  _263
REMARK  110  A    between atoms: _263  and  _264
REMARK  111  A    between atoms: _263  and  _266
REMARK  112  A    between atoms: _266  and  _267
REMARK  113  A    between atoms: _267  and  _268
REMARK  114  A    between atoms: _273  and  _275
REMARK  115  A    between atoms: _275  and  _276
REMARK  116  A    between atoms: _275  and  _278
REMARK  117  A    between atoms: _278  and  _279
REMARK  118  A    between atoms: _282  and  _284
REMARK  119  A    between atoms: _284  and  _285
REMARK  120  A    between atoms: _284  and  _287
REMARK  121  A    between atoms: _287  and  _288
REMARK  122  A    between atoms: _291  and  _293
REMARK  123  A    between atoms: _293  and  _294
REMARK  124  A    between atoms: _293  and  _296
REMARK  125  A    between atoms: _296  and  _297
REMARK  126  A    between atoms: _300  and  _302
REMARK  127  A    between atoms: _302  and  _303
REMARK  128  A    between atoms: _302  and  _305
REMARK  129  A    between atoms: _305  and  _306
REMARK  130  A    between atoms: _306  and  _307
REMARK  131  A    between atoms: _312  and  _314
REMARK  132  A    between atoms: _314  and  _315
REMARK  133  A    between atoms: _314  and  _317
REMARK  134  A    between atoms: _317  and  _318
REMARK  135  A    between atoms: _321  and  _323
REMARK  136  A    between atoms: _323  and  _324
REMARK  137  A    between atoms: _323  and  _326
REMARK  138  A    between atoms: _326  and  _327
REMARK  139  A    between atoms: _327  and  _328
REMARK  140  A    between atoms: _331  and  _332
REMARK  141  A    between atoms: _337  and  _339
REMARK  142  A    between atoms: _339  and  _340
REMARK  143  A    between atoms: _339  and  _342
REMARK  144  A    between atoms: _342  and  _343
REMARK  145  A    between atoms: _349  and  _351
REMARK  146  A    between atoms: _351  and  _352
REMARK  147  A    between atoms: _354  and  _356
REMARK  148  A    between atoms: _356  and  _357
REMARK  149  A    between atoms: _356  and  _359
REMARK  150  A    between atoms: _361  and  _363
REMARK  151  A    between atoms: _363  and  _364
REMARK  152  A    between atoms: _363  and  _366
REMARK  153  A    between atoms: _366  and  _367
REMARK  154  A    between atoms: _370  and  _372
REMARK  155  A    between atoms: _372  and  _373
REMARK  156  A    between atoms: _372  and  _375
REMARK  157  A    between atoms: _375  and  _376
REMARK  158  A    between atoms: _379  and  _381
REMARK  159  A    between atoms: _381  and  _382
REMARK  160  A    between atoms: _381  and  _384
REMARK  161  A    between atoms: _384  and  _385
REMARK  162  A    between atoms: _388  and  _390
REMARK  163  A    between atoms: _390  and  _391
REMARK  164  A    between atoms: _390  and  _393
REMARK  165  A    between atoms: _393  and  _394
REMARK  166  A    between atoms: _399  and  _400
REMARK  167  A    between atoms: _402  and  _404
REMARK  168  A    between atoms: _404  and  _405
REMARK  169  A    between atoms: _404  and  _407
REMARK  170  A    between atoms: _407  and  _408
REMARK  171  A    between atoms: _408  and  _409
REMARK  172  A    between atoms: _409  and  _410
REMARK  173  A    between atoms: _419  and  _421
REMARK  174  A    between atoms: _421  and  _422
REMARK  175  A    between atoms: _421  and  _424
REMARK  176  A    between atoms: _424  and  _425
REMARK  177  A    between atoms: _428  and  _430
REMARK  178  A    between atoms: _430  and  _431
REMARK  179  A    between atoms: _430  and  _433
REMARK  180  A    between atoms: _433  and  _434
REMARK  181  A    between atoms: _439  and  _441
REMARK  182  A    between atoms: _441  and  _442
REMARK  183  A    between atoms: _445  and  _447
REMARK  184  A    between atoms: _447  and  _448
REMARK  185  A    between atoms: _447  and  _450
REMARK  186  A    between atoms: _450  and  _451
REMARK  187  A    between atoms: _451  and  _452
REMARK  188  A    between atoms: _452  and  _453
REMARK  189  A    between atoms: _462  and  _464
REMARK  190  A    between atoms: _464  and  _465
REMARK  191  A    between atoms: _464  and  _467
REMARK  192  A    between atoms: _467  and  _468
REMARK  193  A    between atoms: _473  and  _475
REMARK  194  A    between atoms: _475  and  _476
REMARK  195  A    between atoms: _475  and  _478
REMARK  196  A    between atoms: _481  and  _483
REMARK  197  A    between atoms: _483  and  _484
REMARK  198  A    between atoms: _483  and  _486
REMARK  199  A    between atoms: _486  and  _487
REMARK  200  A    between atoms: _490  and  _492
REMARK  201  A    between atoms: _492  and  _493
REMARK  202  A    between atoms: _492  and  _495
REMARK  203  A    between atoms: _498  and  _500
REMARK  204  A    between atoms: _500  and  _501
REMARK  205  A    between atoms: _500  and  _503
REMARK  206  A    between atoms: _503  and  _504
REMARK  207  A    between atoms: _504  and  _505
REMARK  208  A    between atoms: _505  and  _506
REMARK  209  A    between atoms: _506  and  _507
REMARK  210  A    between atoms: _511  and  _513
REMARK  211  A    between atoms: _513  and  _514
REMARK  212  A    between atoms: _513  and  _516
REMARK  213  A    between atoms: _516  and  _517
REMARK  214  A    between atoms: _520  and  _522
REMARK  215  A    between atoms: _522  and  _523
REMARK  216  A    between atoms: _522  and  _525
REMARK  217  A    between atoms: _525  and  _526
REMARK  218  A    between atoms: _529  and  _531
REMARK  219  A    between atoms: _531  and  _532
REMARK  220  A    between atoms: _531  and  _534
REMARK  221  A    between atoms: _534  and  _535
REMARK  222  A    between atoms: _538  and  _540
REMARK  223  A    between atoms: _540  and  _541
REMARK  224  A    between atoms: _540  and  _543
REMARK  225  A    between atoms: _543  and  _544
REMARK  226  A    between atoms: _550  and  _552
REMARK  227  A    between atoms: _552  and  _553
REMARK  228  A    between atoms: _555  and  _557
REMARK  229  A    between atoms: _557  and  _558
REMARK  230  A    between atoms: _557  and  _560
REMARK  231  A    between atoms: _560  and  _561
REMARK  232  A    between atoms: _564  and  _566
REMARK  233  A    between atoms: _566  and  _567
REMARK  234  A    between atoms: _570  and  _572
REMARK  235  A    between atoms: _572  and  _573
REMARK  236  A    between atoms: _572  and  _575
REMARK  237  A    between atoms: _575  and  _576
REMARK  238  A    between atoms: _586  and  _588
REMARK  239  A    between atoms: _588  and  _589
REMARK  240  A    between atoms: _588  and  _591
REMARK  241  A    between atoms: _591  and  _592
REMARK  242  A    between atoms: _592  and  _593
REMARK  243  A    between atoms: _596  and  _598
REMARK  244  A    between atoms: _598  and  _599
REMARK  245  A    between atoms: _601  and  _603
REMARK  246  A    between atoms: _603  and  _604
REMARK  247  A    between atoms: _603  and  _606
REMARK  248  A    between atoms: _606  and  _607
REMARK  249  A    between atoms: _610  and  _612
REMARK  250  A    between atoms: _612  and  _613
REMARK  251  A    between atoms: _612  and  _615
REMARK  252  A    between atoms: _615  and  _616
REMARK  253  A    between atoms: _616  and  _617
REMARK                            x       y       z     vdW  Elec       q    Type
REMARK                         _______ _______ _______ _____ _____    ______ ____
ROOT
ATOM      1  O   HOH     1      24.130  34.178  42.440  0.00  0.00    +0.000 OA
ENDROOT
TORSDOF 0
REMARK  Name = ../refined-set-2016/1xkk/1xkk_pocket.pdb
REMARK  253 active torsions:
REMARK  status: ('A' for Active; 'I' for Inactive)
REMARK    1  A    between atoms: _1  and  _3
REMARK    2  A    between atoms: _3  and  _4
REMARK    3  A    between atoms: _3  and  _6
REMARK    4  A    between atoms: _9  and  _11
REMARK    5  A    between atoms: _11  and  _12
REMARK    6  A    between atoms: _11  and  _14
REMARK    7  A    between atoms: _14  and  _15
REMARK    8  A    between atoms: _18  and  _20
REMARK    9  A    between atoms: _20  and  _21
REMARK   10  A    between atoms: _23  and  _25
REMARK   11  A    between atoms: _25  and  _26
REMARK   12  A    between atoms: _25  and  _28
REMARK   13  A    between atoms: _28  and  _29
REMARK   14  A    between atoms: _31  and  _33
REMARK   15  A    between atoms: _33  and  _34
REMARK   16  A    between atoms: _36  and  _38
REMARK   17  A    between atoms: _38  and  _39
REMARK   18  A    between atoms: _38  and  _41
REMARK   19  A    between atoms: _41  and  _42
REMARK   20  A    between atoms: _48  and  _50
REMARK   21  A    between atoms: _50  and  _51
REMARK   22  A    between atoms: _50  and  _53
REMARK   23  A    between atoms: _53  and  _54
REMARK   24  A    between atoms: _57  and  _59
REMARK   25  A    between atoms: _59  and  _60
REMARK   26  A    between atoms: _59  and  _62
REMARK   27  A    between atoms: _65  and  _67
REMARK   28  A    between atoms: _67  and  _68
REMARK   29  A    between atoms: _67  and  _70
REMARK   30  A    between atoms: _70  and  _71
REMARK   31  A    between atoms: _76  and  _77
REMARK   32  A    between atoms: _79  and  _81
REMARK   33  A    between atoms: _81  and  _82
REMARK   34  A    between atoms: _81  and  _84
REMARK   35  A    between atoms: _84  and  _85
REMARK   36  A    between atoms: _85  and  _86
REMARK   37  A    between atoms: _86  and  _87
REMARK   38  A    between atoms: _87  and  _88
REMARK   39  A    between atoms: _92  and  _94
REMARK   40  A    between atoms: _94  and  _95
REMARK   41  A    between atoms: _98  and  _99
REMARK   42  A    between atoms: _104  and  _106
REMARK   43  A    between atoms: _106  and  _107
REMARK   44  A    between atoms: _106  and  _109
REMARK   45  A    between atoms: _112  and  _114
REMARK   46  A    between atoms: _114  and  _115
REMARK   47  A    between atoms: _118  and  _120
REMARK   48  A    between atoms: _120  and  _121
REMARK   49  A    between atoms: _120  and  _123
REMARK   50  A    between atoms: _123  and  _124
REMARK   51  A    between atoms: _127  and  _129
REMARK   52  A    between atoms: _129  and  _130
REMARK   53  A    between atoms: _129  and  _132
REMARK   54  A    between atoms: _132  and  _133
REMARK   55  A    between atoms: _133  and  _134
REMARK   56  A    between atoms: _134  and  _135
REMARK   57  A    between atoms: _135  and  _136
REMARK   58  A    between atoms: _140  and  _142
REMARK   59  A    between atoms: _142  and  _143
REMARK   60  A    between atoms: _142  and  _145
REMARK   61  A    between atoms: _145  and  _146
REMARK   62  A    between atoms: _146  and  _147
REMARK   63  A    between atoms: _150  and  _152
REMARK   64  A    between atoms: _152  and  _153
REMARK   65  A    between atoms: _152  and  _155
REMARK   66  A    between atoms: _155  and  _156
REMARK   67  A    between atoms: _159  and  _161
REMARK   68  A    between atoms: _161  and  _162
REMARK   69  A    between atoms: _161  and  _164
REMARK   70  A    between atoms: _164  and  _165
REMARK   71  A    between atoms: _165  and  _166
REMARK   72  A    between atoms: _169  and  _171
REMARK   73  A    between atoms: _171  and  _172
REMARK   74  A    between atoms: _175  and  _177
REMARK   75  A    between atoms: _177  and  _178
REMARK   76  A    between atoms: _177  and  _180
REMARK   77  A    between atoms: _183  and  _185
REMARK   78  A    between atoms: _185  and  _186
REMARK   79  A    between atoms: _185  and  _188
REMARK   80  A    between atoms: _188  and  _189
REMARK   81  A    between atoms: _189  and  _190
REMARK   82  A    between atoms: _192  and  _194
REMARK   83  A    between atoms: _194  and  _195
REMARK   84  A    between atoms: _198  and  _200
REMARK   85  A    between atoms: _200  and  _201
REMARK   86  A    between atoms: _200  and  _203
REMARK   87  A    between atoms: _206  and  _208
REMARK   88  A    between atoms: _208  and  _209
REMARK   89  A    between atoms: _208  and  _211
REMARK   90  A    between atoms: _214  and  _216
REMARK   91  A    between atoms: _216  and  _217
REMARK   92  A    between atoms: _216  and  _219
REMARK   93  A    between atoms: _221  and  _223
REMARK   94  A    between atoms: _223  and  _224
REMARK   95  A    between atoms: _223  and  _226
REMARK   96  A    between atoms: _226  and  _227
REMARK   97  A    between atoms: _227  and  _228
REMARK   98  A    between atoms: _228  and  _229
REMARK   99  A    between atoms: _238  and  _240
REMARK  100  A    between atoms: _240  and  _241
REMARK  101  A    between atoms: _240  and  _243
REMARK  102  A    between atoms: _243  and  _244
REMARK  103  A    between atoms: _247  and  _249
REMARK  104  A    between atoms: _249  and  _250
REMARK  105  A    between atoms: _249  and  _252
REMARK  106  A    between atoms: _252  and  _253
REMARK  107  A    between atoms: _256  and  _258
REMARK  108  A    between atoms: _258  and  _259
REMARK  109  A    between atoms: _261  and  _263
REMARK  110  A    between atoms: _263  and  _264
REMARK  111  A    between atoms: _263  and  _266
REMARK  112  A    between atoms: _266  and  _267
REMARK  113  A    between atoms: _267  and  _268
REMARK  114  A    between atoms: _273  and  _275
REMARK  115  A    between atoms: _275  and  _276
REMARK  116  A    between atoms: _275  and  _278
REMARK  117  A    between atoms: _278  and  _279
REMARK  118  A    between atoms: _282  and  _284
REMARK  119  A    between atoms: _284  and  _285
REMARK  120  A    between atoms: _284  and  _287
REMARK  121  A    between atoms: _287  and  _288
REMARK  122  A    between atoms: _291  and  _293
REMARK  123  A    between atoms: _293  and  _294
REMARK  124  A    between atoms: _293  and  _296
REMARK  125  A    between atoms: _296  and  _297
REMARK  126  A    between atoms: _300  and  _302
REMARK  127  A    between atoms: _302  and  _303
REMARK  128  A    between atoms: _302  and  _305
REMARK  129  A    between atoms: _305  and  _306
REMARK  130  A    between atoms: _306  and  _307
REMARK  131  A    between atoms: _312  and  _314
REMARK  132  A    between atoms: _314  and  _315
REMARK  133  A    between atoms: _314  and  _317
REMARK  134  A    between atoms: _317  and  _318
REMARK  135  A    between atoms: _321  and  _323
REMARK  136  A    between atoms: _323  and  _324
REMARK  137  A    between atoms: _323  and  _326
REMARK  138  A    between atoms: _326  and  _327
REMARK  139  A    between atoms: _327  and  _328
REMARK  140  A    between atoms: _331  and  _332
REMARK  141  A    between atoms: _337  and  _339
REMARK  142  A    between atoms: _339  and  _340
REMARK  143  A    between atoms: _339  and  _342
REMARK  144  A    between atoms: _342  and  _343
REMARK  145  A    between atoms: _349  and  _351
REMARK  146  A    between atoms: _351  and  _352
REMARK  147  A    between atoms: _354  and  _356
REMARK  148  A    between atoms: _356  and  _357
REMARK  149  A    between atoms: _356  and  _359
REMARK  150  A    between atoms: _361  and  _363
REMARK  151  A    between atoms: _363  and  _364
REMARK  152  A    between atoms: _363  and  _366
REMARK  153  A    between atoms: _366  and  _367
REMARK  154  A    between atoms: _370  and  _372
REMARK  155  A    between atoms: _372  and  _373
REMARK  156  A    between atoms: _372  and  _375
REMARK  157  A    between atoms: _375  and  _376
REMARK  158  A    between atoms: _379  and  _381
REMARK  159  A    between atoms: _381  and  _382
REMARK  160  A    between atoms: _381  and  _384
REMARK  161  A    between atoms: _384  and  _385
REMARK  162  A    between atoms: _388  and  _390
REMARK  163  A    between atoms: _390  and  _391
REMARK  164  A    between atoms: _390  and  _393
REMARK  165  A    between atoms: _393  and  _394
REMARK  166  A    between atoms: _399  and  _400
REMARK  167  A    between atoms: _402  and  _404
REMARK  168  A    between atoms: _404  and  _405
REMARK  169  A    between atoms: _404  and  _407
REMARK  170  A    between atoms: _407  and  _408
REMARK  171  A    between atoms: _408  and  _409
REMARK  172  A    between atoms: _409  and  _410
REMARK  173  A    between atoms: _419  and  _421
REMARK  174  A    between atoms: _421  and  _422
REMARK  175  A    between atoms: _421  and  _424
REMARK  176  A    between atoms: _424  and  _425
REMARK  177  A    between atoms: _428  and  _430
REMARK  178  A    between atoms: _430  and  _431
REMARK  179  A    between atoms: _430  and  _433
REMARK  180  A    between atoms: _433  and  _434
REMARK  181  A    between atoms: _439  and  _441
REMARK  182  A    between atoms: _441  and  _442
REMARK  183  A    between atoms: _445  and  _447
REMARK  184  A    between atoms: _447  and  _448
REMARK  185  A    between atoms: _447  and  _450
REMARK  186  A    between atoms: _450  and  _451
REMARK  187  A    between atoms: _451  and  _452
REMARK  188  A    between atoms: _452  and  _453
REMARK  189  A    between atoms: _462  and  _464
REMARK  190  A    between atoms: _464  and  _465
REMARK  191  A    between atoms: _464  and  _467
REMARK  192  A    between atoms: _467  and  _468
REMARK  193  A    between atoms: _473  and  _475
REMARK  194  A    between atoms: _475  and  _476
REMARK  195  A    between atoms: _475  and  _478
REMARK  196  A    between atoms: _481  and  _483
REMARK  197  A    between atoms: _483  and  _484
REMARK  198  A    between atoms: _483  and  _486
REMARK  199  A    between atoms: _486  and  _487
REMARK  200  A    between atoms: _490  and  _492
REMARK  201  A    between atoms: _492  and  _493
REMARK  202  A    between atoms: _492  and  _495
REMARK  203  A    between atoms: _498  and  _500
REMARK  204  A    between atoms: _500  and  _501
REMARK  205  A    between atoms: _500  and  _503
REMARK  206  A    between atoms: _503  and  _504
REMARK  207  A    between atoms: _504  and  _505
REMARK  208  A    between atoms: _505  and  _506
REMARK  209  A    between atoms: _506  and  _507
REMARK  210  A    between atoms: _511  and  _513
REMARK  211  A    between atoms: _513  and  _514
REMARK  212  A    between atoms: _513  and  _516
REMARK  213  A    between atoms: _516  and  _517
REMARK  214  A    between atoms: _520  and  _522
REMARK  215  A    between atoms: _522  and  _523
REMARK  216  A    between atoms: _522  and  _525
REMARK  217  A    between atoms: _525  and  _526
REMARK  218  A    between atoms: _529  and  _531
REMARK  219  A    between atoms: _531  and  _532
REMARK  220  A    between atoms: _531  and  _534
REMARK  221  A    between atoms: _534  and  _535
REMARK  222  A    between atoms: _538  and  _540
REMARK  223  A    between atoms: _540  and  _541
REMARK  224  A    between atoms: _540  and  _543
REMARK  225  A    between atoms: _543  and  _544
REMARK  226  A    between atoms: _550  and  _552
REMARK  227  A    between atoms: _552  and  _553
REMARK  228  A    between atoms: _555  and  _557
REMARK  229  A    between atoms: _557  and  _558
REMARK  230  A    between atoms: _557  and  _560
REMARK  231  A    between atoms: _560  and  _561
REMARK  232  A    between atoms: _564  and  _566
REMARK  233  A    between atoms: _566  and  _567
REMARK  234  A    between atoms: _570  and  _572
REMARK  235  A    between atoms: _572  and  _573
REMARK  236  A    between atoms: _572  and  _575
REMARK  237  A    between atoms: _575  and  _576
REMARK  238  A    between atoms: _586  and  _588
REMARK  239  A    between atoms: _588  and  _589
REMARK  240  A    between atoms: _588  and  _591
REMARK  241  A    between atoms: _591  and  _592
REMARK  242  A    between atoms: _592  and  _593
REMARK  243  A    between atoms: _596  and  _598
REMARK  244  A    between atoms: _598  and  _599
REMARK  245  A    between atoms: _601  and  _603
REMARK  246  A    between atoms: _603  and  _604
REMARK  247  A    between atoms: _603  and  _606
REMARK  248  A    between atoms: _606  and  _607
REMARK  249  A    between atoms: _610  and  _612
REMARK  250  A    between atoms: _612  and  _613
REMARK  251  A    between atoms: _612  and  _615
REMARK  252  A    between atoms: _615  and  _616
REMARK  253  A    between atoms: _616  and  _617
REMARK                            x       y       z     vdW  Elec       q    Type
REMARK                         _______ _______ _______ _____ _____    ______ ____
ROOT
ATOM      1  O   HOH     1      23.880  35.886  40.091  0.00  0.00    +0.000 OA
ENDROOT
TORSDOF 0
REMARK  Name = ../refined-set-2016/1xkk/1xkk_pocket.pdb
REMARK  253 active torsions:
REMARK  status: ('A' for Active; 'I' for Inactive)
REMARK    1  A    between atoms: _1  and  _3
REMARK    2  A    between atoms: _3  and  _4
REMARK    3  A    between atoms: _3  and  _6
REMARK    4  A    between atoms: _9  and  _11
REMARK    5  A    between atoms: _11  and  _12
REMARK    6  A    between atoms: _11  and  _14
REMARK    7  A    between atoms: _14  and  _15
REMARK    8  A    between atoms: _18  and  _20
REMARK    9  A    between atoms: _20  and  _21
REMARK   10  A    between atoms: _23  and  _25
REMARK   11  A    between atoms: _25  and  _26
REMARK   12  A    between atoms: _25  and  _28
REMARK   13  A    between atoms: _28  and  _29
REMARK   14  A    between atoms: _31  and  _33
REMARK   15  A    between atoms: _33  and  _34
REMARK   16  A    between atoms: _36  and  _38
REMARK   17  A    between atoms: _38  and  _39
REMARK   18  A    between atoms: _38  and  _41
REMARK   19  A    between atoms: _41  and  _42
REMARK   20  A    between atoms: _48  and  _50
REMARK   21  A    between atoms: _50  and  _51
REMARK   22  A    between atoms: _50  and  _53
REMARK   23  A    between atoms: _53  and  _54
REMARK   24  A    between atoms: _57  and  _59
REMARK   25  A    between atoms: _59  and  _60
REMARK   26  A    between atoms: _59  and  _62
REMARK   27  A    between atoms: _65  and  _67
REMARK   28  A    between atoms: _67  and  _68
REMARK   29  A    between atoms: _67  and  _70
REMARK   30  A    between atoms: _70  and  _71
REMARK   31  A    between atoms: _76  and  _77
REMARK   32  A    between atoms: _79  and  _81
REMARK   33  A    between atoms: _81  and  _82
REMARK   34  A    between atoms: _81  and  _84
REMARK   35  A    between atoms: _84  and  _85
REMARK   36  A    between atoms: _85  and  _86
REMARK   37  A    between atoms: _86  and  _87
REMARK   38  A    between atoms: _87  and  _88
REMARK   39  A    between atoms: _92  and  _94
REMARK   40  A    between atoms: _94  and  _95
REMARK   41  A    between atoms: _98  and  _99
REMARK   42  A    between atoms: _104  and  _106
REMARK   43  A    between atoms: _106  and  _107
REMARK   44  A    between atoms: _106  and  _109
REMARK   45  A    between atoms: _112  and  _114
REMARK   46  A    between atoms: _114  and  _115
REMARK   47  A    between atoms: _118  and  _120
REMARK   48  A    between atoms: _120  and  _121
REMARK   49  A    between atoms: _120  and  _123
REMARK   50  A    between atoms: _123  and  _124
REMARK   51  A    between atoms: _127  and  _129
REMARK   52  A    between atoms: _129  and  _130
REMARK   53  A    between atoms: _129  and  _132
REMARK   54  A    between atoms: _132  and  _133
REMARK   55  A    between atoms: _133  and  _134
REMARK   56  A    between atoms: _134  and  _135
REMARK   57  A    between atoms: _135  and  _136
REMARK   58  A    between atoms: _140  and  _142
REMARK   59  A    between atoms: _142  and  _143
REMARK   60  A    between atoms: _142  and  _145
REMARK   61  A    between atoms: _145  and  _146
REMARK   62  A    between atoms: _146  and  _147
REMARK   63  A    between atoms: _150  and  _152
REMARK   64  A    between atoms: _152  and  _153
REMARK   65  A    between atoms: _152  and  _155
REMARK   66  A    between atoms: _155  and  _156
REMARK   67  A    between atoms: _159  and  _161
REMARK   68  A    between atoms: _161  and  _162
REMARK   69  A    between atoms: _161  and  _164
REMARK   70  A    between atoms: _164  and  _165
REMARK   71  A    between atoms: _165  and  _166
REMARK   72  A    between atoms: _169  and  _171
REMARK   73  A    between atoms: _171  and  _172
REMARK   74  A    between atoms: _175  and  _177
REMARK   75  A    between atoms: _177  and  _178
REMARK   76  A    between atoms: _177  and  _180
REMARK   77  A    between atoms: _183  and  _185
REMARK   78  A    between atoms: _185  and  _186
REMARK   79  A    between atoms: _185  and  _188
REMARK   80  A    between atoms: _188  and  _189
REMARK   81  A    between atoms: _189  and  _190
REMARK   82  A    between atoms: _192  and  _194
REMARK   83  A    between atoms: _194  and  _195
REMARK   84  A    between atoms: _198  and  _200
REMARK   85  A    between atoms: _200  and  _201
REMARK   86  A    between atoms: _200  and  _203
REMARK   87  A    between atoms: _206  and  _208
REMARK   88  A    between atoms: _208  and  _209
REMARK   89  A    between atoms: _208  and  _211
REMARK   90  A    between atoms: _214  and  _216
REMARK   91  A    between atoms: _216  and  _217
REMARK   92  A    between atoms: _216  and  _219
REMARK   93  A    between atoms: _221  and  _223
REMARK   94  A    between atoms: _223  and  _224
REMARK   95  A    between atoms: _223  and  _226
REMARK   96  A    between atoms: _226  and  _227
REMARK   97  A    between atoms: _227  and  _228
REMARK   98  A    between atoms: _228  and  _229
REMARK   99  A    between atoms: _238  and  _240
REMARK  100  A    between atoms: _240  and  _241
REMARK  101  A    between atoms: _240  and  _243
REMARK  102  A    between atoms: _243  and  _244
REMARK  103  A    between atoms: _247  and  _249
REMARK  104  A    between atoms: _249  and  _250
REMARK  105  A    between atoms: _249  and  _252
REMARK  106  A    between atoms: _252  and  _253
REMARK  107  A    between atoms: _256  and  _258
REMARK  108  A    between atoms: _258  and  _259
REMARK  109  A    between atoms: _261  and  _263
REMARK  110  A    between atoms: _263  and  _264
REMARK  111  A    between atoms: _263  and  _266
REMARK  112  A    between atoms: _266  and  _267
REMARK  113  A    between atoms: _267  and  _268
REMARK  114  A    between atoms: _273  and  _275
REMARK  115  A    between atoms: _275  and  _276
REMARK  116  A    between atoms: _275  and  _278
REMARK  117  A    between atoms: _278  and  _279
REMARK  118  A    between atoms: _282  and  _284
REMARK  119  A    between atoms: _284  and  _285
REMARK  120  A    between atoms: _284  and  _287
REMARK  121  A    between atoms: _287  and  _288
REMARK  122  A    between atoms: _291  and  _293
REMARK  123  A    between atoms: _293  and  _294
REMARK  124  A    between atoms: _293  and  _296
REMARK  125  A    between atoms: _296  and  _297
REMARK  126  A    between atoms: _300  and  _302
REMARK  127  A    between atoms: _302  and  _303
REMARK  128  A    between atoms: _302  and  _305
REMARK  129  A    between atoms: _305  and  _306
REMARK  130  A    between atoms: _306  and  _307
REMARK  131  A    between atoms: _312  and  _314
REMARK  132  A    between atoms: _314  and  _315
REMARK  133  A    between atoms: _314  and  _317
REMARK  134  A    between atoms: _317  and  _318
REMARK  135  A    between atoms: _321  and  _323
REMARK  136  A    between atoms: _323  and  _324
REMARK  137  A    between atoms: _323  and  _326
REMARK  138  A    between atoms: _326  and  _327
REMARK  139  A    between atoms: _327  and  _328
REMARK  140  A    between atoms: _331  and  _332
REMARK  141  A    between atoms: _337  and  _339
REMARK  142  A    between atoms: _339  and  _340
REMARK  143  A    between atoms: _339  and  _342
REMARK  144  A    between atoms: _342  and  _343
REMARK  145  A    between atoms: _349  and  _351
REMARK  146  A    between atoms: _351  and  _352
REMARK  147  A    between atoms: _354  and  _356
REMARK  148  A    between atoms: _356  and  _357
REMARK  149  A    between atoms: _356  and  _359
REMARK  150  A    between atoms: _361  and  _363
REMARK  151  A    between atoms: _363  and  _364
REMARK  152  A    between atoms: _363  and  _366
REMARK  153  A    between atoms: _366  and  _367
REMARK  154  A    between atoms: _370  and  _372
REMARK  155  A    between atoms: _372  and  _373
REMARK  156  A    between atoms: _372  and  _375
REMARK  157  A    between atoms: _375  and  _376
REMARK  158  A    between atoms: _379  and  _381
REMARK  159  A    between atoms: _381  and  _382
REMARK  160  A    between atoms: _381  and  _384
REMARK  161  A    between atoms: _384  and  _385
REMARK  162  A    between atoms: _388  and  _390
REMARK  163  A    between atoms: _390  and  _391
REMARK  164  A    between atoms: _390  and  _393
REMARK  165  A    between atoms: _393  and  _394
REMARK  166  A    between atoms: _399  and  _400
REMARK  167  A    between atoms: _402  and  _404
REMARK  168  A    between atoms: _404  and  _405
REMARK  169  A    between atoms: _404  and  _407
REMARK  170  A    between atoms: _407  and  _408
REMARK  171  A    between atoms: _408  and  _409
REMARK  172  A    between atoms: _409  and  _410
REMARK  173  A    between atoms: _419  and  _421
REMARK  174  A    between atoms: _421  and  _422
REMARK  175  A    between atoms: _421  and  _424
REMARK  176  A    between atoms: _424  and  _425
REMARK  177  A    between atoms: _428  and  _430
REMARK  178  A    between atoms: _430  and  _431
REMARK  179  A    between atoms: _430  and  _433
REMARK  180  A    between atoms: _433  and  _434
REMARK  181  A    between atoms: _439  and  _441
REMARK  182  A    between atoms: _441  and  _442
REMARK  183  A    between atoms: _445  and  _447
REMARK  184  A    between atoms: _447  and  _448
REMARK  185  A    between atoms: _447  and  _450
REMARK  186  A    between atoms: _450  and  _451
REMARK  187  A    between atoms: _451  and  _452
REMARK  188  A    between atoms: _452  and  _453
REMARK  189  A    between atoms: _462  and  _464
REMARK  190  A    between atoms: _464  and  _465
REMARK  191  A    between atoms: _464  and  _467
REMARK  192  A    between atoms: _467  and  _468
REMARK  193  A    between atoms: _473  and  _475
REMARK  194  A    between atoms: _475  and  _476
REMARK  195  A    between atoms: _475  and  _478
REMARK  196  A    between atoms: _481  and  _483
REMARK  197  A    between atoms: _483  and  _484
REMARK  198  A    between atoms: _483  and  _486
REMARK  199  A    between atoms: _486  and  _487
REMARK  200  A    between atoms: _490  and  _492
REMARK  201  A    between atoms: _492  and  _493
REMARK  202  A    between atoms: _492  and  _495
REMARK  203  A    between atoms: _498  and  _500
REMARK  204  A    between atoms: _500  and  _501
REMARK  205  A    between atoms: _500  and  _503
REMARK  206  A    between atoms: _503  and  _504
REMARK  207  A    between atoms: _504  and  _505
REMARK  208  A    between atoms: _505  and  _506
REMARK  209  A    between atoms: _506  and  _507
REMARK  210  A    between atoms: _511  and  _513
REMARK  211  A    between atoms: _513  and  _514
REMARK  212  A    between atoms: _513  and  _516
REMARK  213  A    between atoms: _516  and  _517
REMARK  214  A    between atoms: _520  and  _522
REMARK  215  A    between atoms: _522  and  _523
REMARK  216  A    between atoms: _522  and  _525
REMARK  217  A    between atoms: _525  and  _526
REMARK  218  A    between atoms: _529  and  _531
REMARK  219  A    between atoms: _531  and  _532
REMARK  220  A    between atoms: _531  and  _534
REMARK  221  A    between atoms: _534  and  _535
REMARK  222  A    between atoms: _538  and  _540
REMARK  223  A    between atoms: _540  and  _541
REMARK  224  A    between atoms: _540  and  _543
REMARK  225  A    between atoms: _543  and  _544
REMARK  226  A    between atoms: _550  and  _552
REMARK  227  A    between atoms: _552  and  _553
REMARK  228  A    between atoms: _555  and  _557
REMARK  229  A    between atoms: _557  and  _558
REMARK  230  A    between atoms: _557  and  _560
REMARK  231  A    between atoms: _560  and  _561
REMARK  232  A    between atoms: _564  and  _566
REMARK  233  A    between atoms: _566  and  _567
REMARK  234  A    between atoms: _570  and  _572
REMARK  235  A    between atoms: _572  and  _573
REMARK  236  A    between atoms: _572  and  _575
REMARK  237  A    between atoms: _575  and  _576
REMARK  238  A    between atoms: _586  and  _588
REMARK  239  A    between atoms: _588  and  _589
REMARK  240  A    between atoms: _588  and  _591
REMARK  241  A    between atoms: _591  and  _592
REMARK  242  A    between atoms: _592  and  _593
REMARK  243  A    between atoms: _596  and  _598
REMARK  244  A    between atoms: _598  and  _599
REMARK  245  A    between atoms: _601  and  _603
REMARK  246  A    between atoms: _603  and  _604
REMARK  247  A    between atoms: _603  and  _606
REMARK  248  A    between atoms: _606  and  _607
REMARK  249  A    between atoms: _610  and  _612
REMARK  250  A    between atoms: _612  and  _613
REMARK  251  A    between atoms: _612  and  _615
REMARK  252  A    between atoms: _615  and  _616
REMARK  253  A    between atoms: _616  and  _617
REMARK                            x       y       z     vdW  Elec       q    Type
REMARK                         _______ _______ _______ _____ _____    ______ ____
ROOT
ATOM      1  O   HOH     1       8.043  44.035  43.311  0.00  0.00    +0.000 OA
ENDROOT
TORSDOF 0
REMARK  Name = ../refined-set-2016/1xkk/1xkk_pocket.pdb
REMARK  253 active torsions:
REMARK  status: ('A' for Active; 'I' for Inactive)
REMARK    1  A    between atoms: _1  and  _3
REMARK    2  A    between atoms: _3  and  _4
REMARK    3  A    between atoms: _3  and  _6
REMARK    4  A    between atoms: _9  and  _11
REMARK    5  A    between atoms: _11  and  _12
REMARK    6  A    between atoms: _11  and  _14
REMARK    7  A    between atoms: _14  and  _15
REMARK    8  A    between atoms: _18  and  _20
REMARK    9  A    between atoms: _20  and  _21
REMARK   10  A    between atoms: _23  and  _25
REMARK   11  A    between atoms: _25  and  _26
REMARK   12  A    between atoms: _25  and  _28
REMARK   13  A    between atoms: _28  and  _29
REMARK   14  A    between atoms: _31  and  _33
REMARK   15  A    between atoms: _33  and  _34
REMARK   16  A    between atoms: _36  and  _38
REMARK   17  A    between atoms: _38  and  _39
REMARK   18  A    between atoms: _38  and  _41
REMARK   19  A    between atoms: _41  and  _42
REMARK   20  A    between atoms: _48  and  _50
REMARK   21  A    between atoms: _50  and  _51
REMARK   22  A    between atoms: _50  and  _53
REMARK   23  A    between atoms: _53  and  _54
REMARK   24  A    between atoms: _57  and  _59
REMARK   25  A    between atoms: _59  and  _60
REMARK   26  A    between atoms: _59  and  _62
REMARK   27  A    between atoms: _65  and  _67
REMARK   28  A    between atoms: _67  and  _68
REMARK   29  A    between atoms: _67  and  _70
REMARK   30  A    between atoms: _70  and  _71
REMARK   31  A    between atoms: _76  and  _77
REMARK   32  A    between atoms: _79  and  _81
REMARK   33  A    between atoms: _81  and  _82
REMARK   34  A    between atoms: _81  and  _84
REMARK   35  A    between atoms: _84  and  _85
REMARK   36  A    between atoms: _85  and  _86
REMARK   37  A    between atoms: _86  and  _87
REMARK   38  A    between atoms: _87  and  _88
REMARK   39  A    between atoms: _92  and  _94
REMARK   40  A    between atoms: _94  and  _95
REMARK   41  A    between atoms: _98  and  _99
REMARK   42  A    between atoms: _104  and  _106
REMARK   43  A    between atoms: _106  and  _107
REMARK   44  A    between atoms: _106  and  _109
REMARK   45  A    between atoms: _112  and  _114
REMARK   46  A    between atoms: _114  and  _115
REMARK   47  A    between atoms: _118  and  _120
REMARK   48  A    between atoms: _120  and  _121
REMARK   49  A    between atoms: _120  and  _123
REMARK   50  A    between atoms: _123  and  _124
REMARK   51  A    between atoms: _127  and  _129
REMARK   52  A    between atoms: _129  and  _130
REMARK   53  A    between atoms: _129  and  _132
REMARK   54  A    between atoms: _132  and  _133
REMARK   55  A    between atoms: _133  and  _134
REMARK   56  A    between atoms: _134  and  _135
REMARK   57  A    between atoms: _135  and  _136
REMARK   58  A    between atoms: _140  and  _142
REMARK   59  A    between atoms: _142  and  _143
REMARK   60  A    between atoms: _142  and  _145
REMARK   61  A    between atoms: _145  and  _146
REMARK   62  A    between atoms: _146  and  _147
REMARK   63  A    between atoms: _150  and  _152
REMARK   64  A    between atoms: _152  and  _153
REMARK   65  A    between atoms: _152  and  _155
REMARK   66  A    between atoms: _155  and  _156
REMARK   67  A    between atoms: _159  and  _161
REMARK   68  A    between atoms: _161  and  _162
REMARK   69  A    between atoms: _161  and  _164
REMARK   70  A    between atoms: _164  and  _165
REMARK   71  A    between atoms: _165  and  _166
REMARK   72  A    between atoms: _169  and  _171
REMARK   73  A    between atoms: _171  and  _172
REMARK   74  A    between atoms: _175  and  _177
REMARK   75  A    between atoms: _177  and  _178
REMARK   76  A    between atoms: _177  and  _180
REMARK   77  A    between atoms: _183  and  _185
REMARK   78  A    between atoms: _185  and  _186
REMARK   79  A    between atoms: _185  and  _188
REMARK   80  A    between atoms: _188  and  _189
REMARK   81  A    between atoms: _189  and  _190
REMARK   82  A    between atoms: _192  and  _194
REMARK   83  A    between atoms: _194  and  _195
REMARK   84  A    between atoms: _198  and  _200
REMARK   85  A    between atoms: _200  and  _201
REMARK   86  A    between atoms: _200  and  _203
REMARK   87  A    between atoms: _206  and  _208
REMARK   88  A    between atoms: _208  and  _209
REMARK   89  A    between atoms: _208  and  _211
REMARK   90  A    between atoms: _214  and  _216
REMARK   91  A    between atoms: _216  and  _217
REMARK   92  A    between atoms: _216  and  _219
REMARK   93  A    between atoms: _221  and  _223
REMARK   94  A    between atoms: _223  and  _224
REMARK   95  A    between atoms: _223  and  _226
REMARK   96  A    between atoms: _226  and  _227
REMARK   97  A    between atoms: _227  and  _228
REMARK   98  A    between atoms: _228  and  _229
REMARK   99  A    between atoms: _238  and  _240
REMARK  100  A    between atoms: _240  and  _241
REMARK  101  A    between atoms: _240  and  _243
REMARK  102  A    between atoms: _243  and  _244
REMARK  103  A    between atoms: _247  and  _249
REMARK  104  A    between atoms: _249  and  _250
REMARK  105  A    between atoms: _249  and  _252
REMARK  106  A    between atoms: _252  and  _253
REMARK  107  A    between atoms: _256  and  _258
REMARK  108  A    between atoms: _258  and  _259
REMARK  109  A    between atoms: _261  and  _263
REMARK  110  A    between atoms: _263  and  _264
REMARK  111  A    between atoms: _263  and  _266
REMARK  112  A    between atoms: _266  and  _267
REMARK  113  A    between atoms: _267  and  _268
REMARK  114  A    between atoms: _273  and  _275
REMARK  115  A    between atoms: _275  and  _276
REMARK  116  A    between atoms: _275  and  _278
REMARK  117  A    between atoms: _278  and  _279
REMARK  118  A    between atoms: _282  and  _284
REMARK  119  A    between atoms: _284  and  _285
REMARK  120  A    between atoms: _284  and  _287
REMARK  121  A    between atoms: _287  and  _288
REMARK  122  A    between atoms: _291  and  _293
REMARK  123  A    between atoms: _293  and  _294
REMARK  124  A    between atoms: _293  and  _296
REMARK  125  A    between atoms: _296  and  _297
REMARK  126  A    between atoms: _300  and  _302
REMARK  127  A    between atoms: _302  and  _303
REMARK  128  A    between atoms: _302  and  _305
REMARK  129  A    between atoms: _305  and  _306
REMARK  130  A    between atoms: _306  and  _307
REMARK  131  A    between atoms: _312  and  _314
REMARK  132  A    between atoms: _314  and  _315
REMARK  133  A    between atoms: _314  and  _317
REMARK  134  A    between atoms: _317  and  _318
REMARK  135  A    between atoms: _321  and  _323
REMARK  136  A    between atoms: _323  and  _324
REMARK  137  A    between atoms: _323  and  _326
REMARK  138  A    between atoms: _326  and  _327
REMARK  139  A    between atoms: _327  and  _328
REMARK  140  A    between atoms: _331  and  _332
REMARK  141  A    between atoms: _337  and  _339
REMARK  142  A    between atoms: _339  and  _340
REMARK  143  A    between atoms: _339  and  _342
REMARK  144  A    between atoms: _342  and  _343
REMARK  145  A    between atoms: _349  and  _351
REMARK  146  A    between atoms: _351  and  _352
REMARK  147  A    between atoms: _354  and  _356
REMARK  148  A    between atoms: _356  and  _357
REMARK  149  A    between atoms: _356  and  _359
REMARK  150  A    between atoms: _361  and  _363
REMARK  151  A    between atoms: _363  and  _364
REMARK  152  A    between atoms: _363  and  _366
REMARK  153  A    between atoms: _366  and  _367
REMARK  154  A    between atoms: _370  and  _372
REMARK  155  A    between atoms: _372  and  _373
REMARK  156  A    between atoms: _372  and  _375
REMARK  157  A    between atoms: _375  and  _376
REMARK  158  A    between atoms: _379  and  _381
REMARK  159  A    between atoms: _381  and  _382
REMARK  160  A    between atoms: _381  and  _384
REMARK  161  A    between atoms: _384  and  _385
REMARK  162  A    between atoms: _388  and  _390
REMARK  163  A    between atoms: _390  and  _391
REMARK  164  A    between atoms: _390  and  _393
REMARK  165  A    between atoms: _393  and  _394
REMARK  166  A    between atoms: _399  and  _400
REMARK  167  A    between atoms: _402  and  _404
REMARK  168  A    between atoms: _404  and  _405
REMARK  169  A    between atoms: _404  and  _407
REMARK  170  A    between atoms: _407  and  _408
REMARK  171  A    between atoms: _408  and  _409
REMARK  172  A    between atoms: _409  and  _410
REMARK  173  A    between atoms: _419  and  _421
REMARK  174  A    between atoms: _421  and  _422
REMARK  175  A    between atoms: _421  and  _424
REMARK  176  A    between atoms: _424  and  _425
REMARK  177  A    between atoms: _428  and  _430
REMARK  178  A    between atoms: _430  and  _431
REMARK  179  A    between atoms: _430  and  _433
REMARK  180  A    between atoms: _433  and  _434
REMARK  181  A    between atoms: _439  and  _441
REMARK  182  A    between atoms: _441  and  _442
REMARK  183  A    between atoms: _445  and  _447
REMARK  184  A    between atoms: _447  and  _448
REMARK  185  A    between atoms: _447  and  _450
REMARK  186  A    between atoms: _450  and  _451
REMARK  187  A    between atoms: _451  and  _452
REMARK  188  A    between atoms: _452  and  _453
REMARK  189  A    between atoms: _462  and  _464
REMARK  190  A    between atoms: _464  and  _465
REMARK  191  A    between atoms: _464  and  _467
REMARK  192  A    between atoms: _467  and  _468
REMARK  193  A    between atoms: _473  and  _475
REMARK  194  A    between atoms: _475  and  _476
REMARK  195  A    between atoms: _475  and  _478
REMARK  196  A    between atoms: _481  and  _483
REMARK  197  A    between atoms: _483  and  _484
REMARK  198  A    between atoms: _483  and  _486
REMARK  199  A    between atoms: _486  and  _487
REMARK  200  A    between atoms: _490  and  _492
REMARK  201  A    between atoms: _492  and  _493
REMARK  202  A    between atoms: _492  and  _495
REMARK  203  A    between atoms: _498  and  _500
REMARK  204  A    between atoms: _500  and  _501
REMARK  205  A    between atoms: _500  and  _503
REMARK  206  A    between atoms: _503  and  _504
REMARK  207  A    between atoms: _504  and  _505
REMARK  208  A    between atoms: _505  and  _506
REMARK  209  A    between atoms: _506  and  _507
REMARK  210  A    between atoms: _511  and  _513
REMARK  211  A    between atoms: _513  and  _514
REMARK  212  A    between atoms: _513  and  _516
REMARK  213  A    between atoms: _516  and  _517
REMARK  214  A    between atoms: _520  and  _522
REMARK  215  A    between atoms: _522  and  _523
REMARK  216  A    between atoms: _522  and  _525
REMARK  217  A    between atoms: _525  and  _526
REMARK  218  A    between atoms: _529  and  _531
REMARK  219  A    between atoms: _531  and  _532
REMARK  220  A    between atoms: _531  and  _534
REMARK  221  A    between atoms: _534  and  _535
REMARK  222  A    between atoms: _538  and  _540
REMARK  223  A    between atoms: _540  and  _541
REMARK  224  A    between atoms: _540  and  _543
REMARK  225  A    between atoms: _543  and  _544
REMARK  226  A    between atoms: _550  and  _552
REMARK  227  A    between atoms: _552  and  _553
REMARK  228  A    between atoms: _555  and  _557
REMARK  229  A    between atoms: _557  and  _558
REMARK  230  A    between atoms: _557  and  _560
REMARK  231  A    between atoms: _560  and  _561
REMARK  232  A    between atoms: _564  and  _566
REMARK  233  A    between atoms: _566  and  _567
REMARK  234  A    between atoms: _570  and  _572
REMARK  235  A    between atoms: _572  and  _573
REMARK  236  A    between atoms: _572  and  _575
REMARK  237  A    between atoms: _575  and  _576
REMARK  238  A    between atoms: _586  and  _588
REMARK  239  A    between atoms: _588  and  _589
REMARK  240  A    between atoms: _588  and  _591
REMARK  241  A    between atoms: _591  and  _592
REMARK  242  A    between atoms: _592  and  _593
REMARK  243  A    between atoms: _596  and  _598
REMARK  244  A    between atoms: _598  and  _599
REMARK  245  A    between atoms: _601  and  _603
REMARK  246  A    between atoms: _603  and  _604
REMARK  247  A    between atoms: _603  and  _606
REMARK  248  A    between atoms: _606  and  _607
REMARK  249  A    between atoms: _610  and  _612
REMARK  250  A    between atoms: _612  and  _613
REMARK  251  A    between atoms: _612  and  _615
REMARK  252  A    between atoms: _615  and  _616
REMARK  253  A    between atoms: _616  and  _617
REMARK                            x       y       z     vdW  Elec       q    Type
REMARK                         _______ _______ _______ _____ _____    ______ ____
ROOT
ATOM      1  O   HOH     1      13.647  36.166  40.814  0.00  0.00    +0.000 OA
ENDROOT
TORSDOF 0
REMARK  Name = ../refined-set-2016/1xkk/1xkk_pocket.pdb
REMARK  253 active torsions:
REMARK  status: ('A' for Active; 'I' for Inactive)
REMARK    1  A    between atoms: _1  and  _3
REMARK    2  A    between atoms: _3  and  _4
REMARK    3  A    between atoms: _3  and  _6
REMARK    4  A    between atoms: _9  and  _11
REMARK    5  A    between atoms: _11  and  _12
REMARK    6  A    between atoms: _11  and  _14
REMARK    7  A    between atoms: _14  and  _15
REMARK    8  A    between atoms: _18  and  _20
REMARK    9  A    between atoms: _20  and  _21
REMARK   10  A    between atoms: _23  and  _25
REMARK   11  A    between atoms: _25  and  _26
REMARK   12  A    between atoms: _25  and  _28
REMARK   13  A    between atoms: _28  and  _29
REMARK   14  A    between atoms: _31  and  _33
REMARK   15  A    between atoms: _33  and  _34
REMARK   16  A    between atoms: _36  and  _38
REMARK   17  A    between atoms: _38  and  _39
REMARK   18  A    between atoms: _38  and  _41
REMARK   19  A    between atoms: _41  and  _42
REMARK   20  A    between atoms: _48  and  _50
REMARK   21  A    between atoms: _50  and  _51
REMARK   22  A    between atoms: _50  and  _53
REMARK   23  A    between atoms: _53  and  _54
REMARK   24  A    between atoms: _57  and  _59
REMARK   25  A    between atoms: _59  and  _60
REMARK   26  A    between atoms: _59  and  _62
REMARK   27  A    between atoms: _65  and  _67
REMARK   28  A    between atoms: _67  and  _68
REMARK   29  A    between atoms: _67  and  _70
REMARK   30  A    between atoms: _70  and  _71
REMARK   31  A    between atoms: _76  and  _77
REMARK   32  A    between atoms: _79  and  _81
REMARK   33  A    between atoms: _81  and  _82
REMARK   34  A    between atoms: _81  and  _84
REMARK   35  A    between atoms: _84  and  _85
REMARK   36  A    between atoms: _85  and  _86
REMARK   37  A    between atoms: _86  and  _87
REMARK   38  A    between atoms: _87  and  _88
REMARK   39  A    between atoms: _92  and  _94
REMARK   40  A    between atoms: _94  and  _95
REMARK   41  A    between atoms: _98  and  _99
REMARK   42  A    between atoms: _104  and  _106
REMARK   43  A    between atoms: _106  and  _107
REMARK   44  A    between atoms: _106  and  _109
REMARK   45  A    between atoms: _112  and  _114
REMARK   46  A    between atoms: _114  and  _115
REMARK   47  A    between atoms: _118  and  _120
REMARK   48  A    between atoms: _120  and  _121
REMARK   49  A    between atoms: _120  and  _123
REMARK   50  A    between atoms: _123  and  _124
REMARK   51  A    between atoms: _127  and  _129
REMARK   52  A    between atoms: _129  and  _130
REMARK   53  A    between atoms: _129  and  _132
REMARK   54  A    between atoms: _132  and  _133
REMARK   55  A    between atoms: _133  and  _134
REMARK   56  A    between atoms: _134  and  _135
REMARK   57  A    between atoms: _135  and  _136
REMARK   58  A    between atoms: _140  and  _142
REMARK   59  A    between atoms: _142  and  _143
REMARK   60  A    between atoms: _142  and  _145
REMARK   61  A    between atoms: _145  and  _146
REMARK   62  A    between atoms: _146  and  _147
REMARK   63  A    between atoms: _150  and  _152
REMARK   64  A    between atoms: _152  and  _153
REMARK   65  A    between atoms: _152  and  _155
REMARK   66  A    between atoms: _155  and  _156
REMARK   67  A    between atoms: _159  and  _161
REMARK   68  A    between atoms: _161  and  _162
REMARK   69  A    between atoms: _161  and  _164
REMARK   70  A    between atoms: _164  and  _165
REMARK   71  A    between atoms: _165  and  _166
REMARK   72  A    between atoms: _169  and  _171
REMARK   73  A    between atoms: _171  and  _172
REMARK   74  A    between atoms: _175  and  _177
REMARK   75  A    between atoms: _177  and  _178
REMARK   76  A    between atoms: _177  and  _180
REMARK   77  A    between atoms: _183  and  _185
REMARK   78  A    between atoms: _185  and  _186
REMARK   79  A    between atoms: _185  and  _188
REMARK   80  A    between atoms: _188  and  _189
REMARK   81  A    between atoms: _189  and  _190
REMARK   82  A    between atoms: _192  and  _194
REMARK   83  A    between atoms: _194  and  _195
REMARK   84  A    between atoms: _198  and  _200
REMARK   85  A    between atoms: _200  and  _201
REMARK   86  A    between atoms: _200  and  _203
REMARK   87  A    between atoms: _206  and  _208
REMARK   88  A    between atoms: _208  and  _209
REMARK   89  A    between atoms: _208  and  _211
REMARK   90  A    between atoms: _214  and  _216
REMARK   91  A    between atoms: _216  and  _217
REMARK   92  A    between atoms: _216  and  _219
REMARK   93  A    between atoms: _221  and  _223
REMARK   94  A    between atoms: _223  and  _224
REMARK   95  A    between atoms: _223  and  _226
REMARK   96  A    between atoms: _226  and  _227
REMARK   97  A    between atoms: _227  and  _228
REMARK   98  A    between atoms: _228  and  _229
REMARK   99  A    between atoms: _238  and  _240
REMARK  100  A    between atoms: _240  and  _241
REMARK  101  A    between atoms: _240  and  _243
REMARK  102  A    between atoms: _243  and  _244
REMARK  103  A    between atoms: _247  and  _249
REMARK  104  A    between atoms: _249  and  _250
REMARK  105  A    between atoms: _249  and  _252
REMARK  106  A    between atoms: _252  and  _253
REMARK  107  A    between atoms: _256  and  _258
REMARK  108  A    between atoms: _258  and  _259
REMARK  109  A    between atoms: _261  and  _263
REMARK  110  A    between atoms: _263  and  _264
REMARK  111  A    between atoms: _263  and  _266
REMARK  112  A    between atoms: _266  and  _267
REMARK  113  A    between atoms: _267  and  _268
REMARK  114  A    between atoms: _273  and  _275
REMARK  115  A    between atoms: _275  and  _276
REMARK  116  A    between atoms: _275  and  _278
REMARK  117  A    between atoms: _278  and  _279
REMARK  118  A    between atoms: _282  and  _284
REMARK  119  A    between atoms: _284  and  _285
REMARK  120  A    between atoms: _284  and  _287
REMARK  121  A    between atoms: _287  and  _288
REMARK  122  A    between atoms: _291  and  _293
REMARK  123  A    between atoms: _293  and  _294
REMARK  124  A    between atoms: _293  and  _296
REMARK  125  A    between atoms: _296  and  _297
REMARK  126  A    between atoms: _300  and  _302
REMARK  127  A    between atoms: _302  and  _303
REMARK  128  A    between atoms: _302  and  _305
REMARK  129  A    between atoms: _305  and  _306
REMARK  130  A    between atoms: _306  and  _307
REMARK  131  A    between atoms: _312  and  _314
REMARK  132  A    between atoms: _314  and  _315
REMARK  133  A    between atoms: _314  and  _317
REMARK  134  A    between atoms: _317  and  _318
REMARK  135  A    between atoms: _321  and  _323
REMARK  136  A    between atoms: _323  and  _324
REMARK  137  A    between atoms: _323  and  _326
REMARK  138  A    between atoms: _326  and  _327
REMARK  139  A    between atoms: _327  and  _328
REMARK  140  A    between atoms: _331  and  _332
REMARK  141  A    between atoms: _337  and  _339
REMARK  142  A    between atoms: _339  and  _340
REMARK  143  A    between atoms: _339  and  _342
REMARK  144  A    between atoms: _342  and  _343
REMARK  145  A    between atoms: _349  and  _351
REMARK  146  A    between atoms: _351  and  _352
REMARK  147  A    between atoms: _354  and  _356
REMARK  148  A    between atoms: _356  and  _357
REMARK  149  A    between atoms: _356  and  _359
REMARK  150  A    between atoms: _361  and  _363
REMARK  151  A    between atoms: _363  and  _364
REMARK  152  A    between atoms: _363  and  _366
REMARK  153  A    between atoms: _366  and  _367
REMARK  154  A    between atoms: _370  and  _372
REMARK  155  A    between atoms: _372  and  _373
REMARK  156  A    between atoms: _372  and  _375
REMARK  157  A    between atoms: _375  and  _376
REMARK  158  A    between atoms: _379  and  _381
REMARK  159  A    between atoms: _381  and  _382
REMARK  160  A    between atoms: _381  and  _384
REMARK  161  A    between atoms: _384  and  _385
REMARK  162  A    between atoms: _388  and  _390
REMARK  163  A    between atoms: _390  and  _391
REMARK  164  A    between atoms: _390  and  _393
REMARK  165  A    between atoms: _393  and  _394
REMARK  166  A    between atoms: _399  and  _400
REMARK  167  A    between atoms: _402  and  _404
REMARK  168  A    between atoms: _404  and  _405
REMARK  169  A    between atoms: _404  and  _407
REMARK  170  A    between atoms: _407  and  _408
REMARK  171  A    between atoms: _408  and  _409
REMARK  172  A    between atoms: _409  and  _410
REMARK  173  A    between atoms: _419  and  _421
REMARK  174  A    between atoms: _421  and  _422
REMARK  175  A    between atoms: _421  and  _424
REMARK  176  A    between atoms: _424  and  _425
REMARK  177  A    between atoms: _428  and  _430
REMARK  178  A    between atoms: _430  and  _431
REMARK  179  A    between atoms: _430  and  _433
REMARK  180  A    between atoms: _433  and  _434
REMARK  181  A    between atoms: _439  and  _441
REMARK  182  A    between atoms: _441  and  _442
REMARK  183  A    between atoms: _445  and  _447
REMARK  184  A    between atoms: _447  and  _448
REMARK  185  A    between atoms: _447  and  _450
REMARK  186  A    between atoms: _450  and  _451
REMARK  187  A    between atoms: _451  and  _452
REMARK  188  A    between atoms: _452  and  _453
REMARK  189  A    between atoms: _462  and  _464
REMARK  190  A    between atoms: _464  and  _465
REMARK  191  A    between atoms: _464  and  _467
REMARK  192  A    between atoms: _467  and  _468
REMARK  193  A    between atoms: _473  and  _475
REMARK  194  A    between atoms: _475  and  _476
REMARK  195  A    between atoms: _475  and  _478
REMARK  196  A    between atoms: _481  and  _483
REMARK  197  A    between atoms: _483  and  _484
REMARK  198  A    between atoms: _483  and  _486
REMARK  199  A    between atoms: _486  and  _487
REMARK  200  A    between atoms: _490  and  _492
REMARK  201  A    between atoms: _492  and  _493
REMARK  202  A    between atoms: _492  and  _495
REMARK  203  A    between atoms: _498  and  _500
REMARK  204  A    between atoms: _500  and  _501
REMARK  205  A    between atoms: _500  and  _503
REMARK  206  A    between atoms: _503  and  _504
REMARK  207  A    between atoms: _504  and  _505
REMARK  208  A    between atoms: _505  and  _506
REMARK  209  A    between atoms: _506  and  _507
REMARK  210  A    between atoms: _511  and  _513
REMARK  211  A    between atoms: _513  and  _514
REMARK  212  A    between atoms: _513  and  _516
REMARK  213  A    between atoms: _516  and  _517
REMARK  214  A    between atoms: _520  and  _522
REMARK  215  A    between atoms: _522  and  _523
REMARK  216  A    between atoms: _522  and  _525
REMARK  217  A    between atoms: _525  and  _526
REMARK  218  A    between atoms: _529  and  _531
REMARK  219  A    between atoms: _531  and  _532
REMARK  220  A    between atoms: _531  and  _534
REMARK  221  A    between atoms: _534  and  _535
REMARK  222  A    between atoms: _538  and  _540
REMARK  223  A    between atoms: _540  and  _541
REMARK  224  A    between atoms: _540  and  _543
REMARK  225  A    between atoms: _543  and  _544
REMARK  226  A    between atoms: _550  and  _552
REMARK  227  A    between atoms: _552  and  _553
REMARK  228  A    between atoms: _555  and  _557
REMARK  229  A    between atoms: _557  and  _558
REMARK  230  A    between atoms: _557  and  _560
REMARK  231  A    between atoms: _560  and  _561
REMARK  232  A    between atoms: _564  and  _566
REMARK  233  A    between atoms: _566  and  _567
REMARK  234  A    between atoms: _570  and  _572
REMARK  235  A    between atoms: _572  and  _573
REMARK  236  A    between atoms: _572  and  _575
REMARK  237  A    between atoms: _575  and  _576
REMARK  238  A    between atoms: _586  and  _588
REMARK  239  A    between atoms: _588  and  _589
REMARK  240  A    between atoms: _588  and  _591
REMARK  241  A    between atoms: _591  and  _592
REMARK  242  A    between atoms: _592  and  _593
REMARK  243  A    between atoms: _596  and  _598
REMARK  244  A    between atoms: _598  and  _599
REMARK  245  A    between atoms: _601  and  _603
REMARK  246  A    between atoms: _603  and  _604
REMARK  247  A    between atoms: _603  and  _606
REMARK  248  A    between atoms: _606  and  _607
REMARK  249  A    between atoms: _610  and  _612
REMARK  250  A    between atoms: _612  and  _613
REMARK  251  A    between atoms: _612  and  _615
REMARK  252  A    between atoms: _615  and  _616
REMARK  253  A    between atoms: _616  and  _617
REMARK                            x       y       z     vdW  Elec       q    Type
REMARK                         _______ _______ _______ _____ _____    ______ ____
ROOT
ATOM      1  O   HOH     1      10.733  36.601  40.372  0.00  0.00    +0.000 OA
ENDROOT
TORSDOF 0
REMARK  Name = ../refined-set-2016/1xkk/1xkk_pocket.pdb
REMARK  253 active torsions:
REMARK  status: ('A' for Active; 'I' for Inactive)
REMARK    1  A    between atoms: _1  and  _3
REMARK    2  A    between atoms: _3  and  _4
REMARK    3  A    between atoms: _3  and  _6
REMARK    4  A    between atoms: _9  and  _11
REMARK    5  A    between atoms: _11  and  _12
REMARK    6  A    between atoms: _11  and  _14
REMARK    7  A    between atoms: _14  and  _15
REMARK    8  A    between atoms: _18  and  _20
REMARK    9  A    between atoms: _20  and  _21
REMARK   10  A    between atoms: _23  and  _25
REMARK   11  A    between atoms: _25  and  _26
REMARK   12  A    between atoms: _25  and  _28
REMARK   13  A    between atoms: _28  and  _29
REMARK   14  A    between atoms: _31  and  _33
REMARK   15  A    between atoms: _33  and  _34
REMARK   16  A    between atoms: _36  and  _38
REMARK   17  A    between atoms: _38  and  _39
REMARK   18  A    between atoms: _38  and  _41
REMARK   19  A    between atoms: _41  and  _42
REMARK   20  A    between atoms: _48  and  _50
REMARK   21  A    between atoms: _50  and  _51
REMARK   22  A    between atoms: _50  and  _53
REMARK   23  A    between atoms: _53  and  _54
REMARK   24  A    between atoms: _57  and  _59
REMARK   25  A    between atoms: _59  and  _60
REMARK   26  A    between atoms: _59  and  _62
REMARK   27  A    between atoms: _65  and  _67
REMARK   28  A    between atoms: _67  and  _68
REMARK   29  A    between atoms: _67  and  _70
REMARK   30  A    between atoms: _70  and  _71
REMARK   31  A    between atoms: _76  and  _77
REMARK   32  A    between atoms: _79  and  _81
REMARK   33  A    between atoms: _81  and  _82
REMARK   34  A    between atoms: _81  and  _84
REMARK   35  A    between atoms: _84  and  _85
REMARK   36  A    between atoms: _85  and  _86
REMARK   37  A    between atoms: _86  and  _87
REMARK   38  A    between atoms: _87  and  _88
REMARK   39  A    between atoms: _92  and  _94
REMARK   40  A    between atoms: _94  and  _95
REMARK   41  A    between atoms: _98  and  _99
REMARK   42  A    between atoms: _104  and  _106
REMARK   43  A    between atoms: _106  and  _107
REMARK   44  A    between atoms: _106  and  _109
REMARK   45  A    between atoms: _112  and  _114
REMARK   46  A    between atoms: _114  and  _115
REMARK   47  A    between atoms: _118  and  _120
REMARK   48  A    between atoms: _120  and  _121
REMARK   49  A    between atoms: _120  and  _123
REMARK   50  A    between atoms: _123  and  _124
REMARK   51  A    between atoms: _127  and  _129
REMARK   52  A    between atoms: _129  and  _130
REMARK   53  A    between atoms: _129  and  _132
REMARK   54  A    between atoms: _132  and  _133
REMARK   55  A    between atoms: _133  and  _134
REMARK   56  A    between atoms: _134  and  _135
REMARK   57  A    between atoms: _135  and  _136
REMARK   58  A    between atoms: _140  and  _142
REMARK   59  A    between atoms: _142  and  _143
REMARK   60  A    between atoms: _142  and  _145
REMARK   61  A    between atoms: _145  and  _146
REMARK   62  A    between atoms: _146  and  _147
REMARK   63  A    between atoms: _150  and  _152
REMARK   64  A    between atoms: _152  and  _153
REMARK   65  A    between atoms: _152  and  _155
REMARK   66  A    between atoms: _155  and  _156
REMARK   67  A    between atoms: _159  and  _161
REMARK   68  A    between atoms: _161  and  _162
REMARK   69  A    between atoms: _161  and  _164
REMARK   70  A    between atoms: _164  and  _165
REMARK   71  A    between atoms: _165  and  _166
REMARK   72  A    between atoms: _169  and  _171
REMARK   73  A    between atoms: _171  and  _172
REMARK   74  A    between atoms: _175  and  _177
REMARK   75  A    between atoms: _177  and  _178
REMARK   76  A    between atoms: _177  and  _180
REMARK   77  A    between atoms: _183  and  _185
REMARK   78  A    between atoms: _185  and  _186
REMARK   79  A    between atoms: _185  and  _188
REMARK   80  A    between atoms: _188  and  _189
REMARK   81  A    between atoms: _189  and  _190
REMARK   82  A    between atoms: _192  and  _194
REMARK   83  A    between atoms: _194  and  _195
REMARK   84  A    between atoms: _198  and  _200
REMARK   85  A    between atoms: _200  and  _201
REMARK   86  A    between atoms: _200  and  _203
REMARK   87  A    between atoms: _206  and  _208
REMARK   88  A    between atoms: _208  and  _209
REMARK   89  A    between atoms: _208  and  _211
REMARK   90  A    between atoms: _214  and  _216
REMARK   91  A    between atoms: _216  and  _217
REMARK   92  A    between atoms: _216  and  _219
REMARK   93  A    between atoms: _221  and  _223
REMARK   94  A    between atoms: _223  and  _224
REMARK   95  A    between atoms: _223  and  _226
REMARK   96  A    between atoms: _226  and  _227
REMARK   97  A    between atoms: _227  and  _228
REMARK   98  A    between atoms: _228  and  _229
REMARK   99  A    between atoms: _238  and  _240
REMARK  100  A    between atoms: _240  and  _241
REMARK  101  A    between atoms: _240  and  _243
REMARK  102  A    between atoms: _243  and  _244
REMARK  103  A    between atoms: _247  and  _249
REMARK  104  A    between atoms: _249  and  _250
REMARK  105  A    between atoms: _249  and  _252
REMARK  106  A    between atoms: _252  and  _253
REMARK  107  A    between atoms: _256  and  _258
REMARK  108  A    between atoms: _258  and  _259
REMARK  109  A    between atoms: _261  and  _263
REMARK  110  A    between atoms: _263  and  _264
REMARK  111  A    between atoms: _263  and  _266
REMARK  112  A    between atoms: _266  and  _267
REMARK  113  A    between atoms: _267  and  _268
REMARK  114  A    between atoms: _273  and  _275
REMARK  115  A    between atoms: _275  and  _276
REMARK  116  A    between atoms: _275  and  _278
REMARK  117  A    between atoms: _278  and  _279
REMARK  118  A    between atoms: _282  and  _284
REMARK  119  A    between atoms: _284  and  _285
REMARK  120  A    between atoms: _284  and  _287
REMARK  121  A    between atoms: _287  and  _288
REMARK  122  A    between atoms: _291  and  _293
REMARK  123  A    between atoms: _293  and  _294
REMARK  124  A    between atoms: _293  and  _296
REMARK  125  A    between atoms: _296  and  _297
REMARK  126  A    between atoms: _300  and  _302
REMARK  127  A    between atoms: _302  and  _303
REMARK  128  A    between atoms: _302  and  _305
REMARK  129  A    between atoms: _305  and  _306
REMARK  130  A    between atoms: _306  and  _307
REMARK  131  A    between atoms: _312  and  _314
REMARK  132  A    between atoms: _314  and  _315
REMARK  133  A    between atoms: _314  and  _317
REMARK  134  A    between atoms: _317  and  _318
REMARK  135  A    between atoms: _321  and  _323
REMARK  136  A    between atoms: _323  and  _324
REMARK  137  A    between atoms: _323  and  _326
REMARK  138  A    between atoms: _326  and  _327
REMARK  139  A    between atoms: _327  and  _328
REMARK  140  A    between atoms: _331  and  _332
REMARK  141  A    between atoms: _337  and  _339
REMARK  142  A    between atoms: _339  and  _340
REMARK  143  A    between atoms: _339  and  _342
REMARK  144  A    between atoms: _342  and  _343
REMARK  145  A    between atoms: _349  and  _351
REMARK  146  A    between atoms: _351  and  _352
REMARK  147  A    between atoms: _354  and  _356
REMARK  148  A    between atoms: _356  and  _357
REMARK  149  A    between atoms: _356  and  _359
REMARK  150  A    between atoms: _361  and  _363
REMARK  151  A    between atoms: _363  and  _364
REMARK  152  A    between atoms: _363  and  _366
REMARK  153  A    between atoms: _366  and  _367
REMARK  154  A    between atoms: _370  and  _372
REMARK  155  A    between atoms: _372  and  _373
REMARK  156  A    between atoms: _372  and  _375
REMARK  157  A    between atoms: _375  and  _376
REMARK  158  A    between atoms: _379  and  _381
REMARK  159  A    between atoms: _381  and  _382
REMARK  160  A    between atoms: _381  and  _384
REMARK  161  A    between atoms: _384  and  _385
REMARK  162  A    between atoms: _388  and  _390
REMARK  163  A    between atoms: _390  and  _391
REMARK  164  A    between atoms: _390  and  _393
REMARK  165  A    between atoms: _393  and  _394
REMARK  166  A    between atoms: _399  and  _400
REMARK  167  A    between atoms: _402  and  _404
REMARK  168  A    between atoms: _404  and  _405
REMARK  169  A    between atoms: _404  and  _407
REMARK  170  A    between atoms: _407  and  _408
REMARK  171  A    between atoms: _408  and  _409
REMARK  172  A    between atoms: _409  and  _410
REMARK  173  A    between atoms: _419  and  _421
REMARK  174  A    between atoms: _421  and  _422
REMARK  175  A    between atoms: _421  and  _424
REMARK  176  A    between atoms: _424  and  _425
REMARK  177  A    between atoms: _428  and  _430
REMARK  178  A    between atoms: _430  and  _431
REMARK  179  A    between atoms: _430  and  _433
REMARK  180  A    between atoms: _433  and  _434
REMARK  181  A    between atoms: _439  and  _441
REMARK  182  A    between atoms: _441  and  _442
REMARK  183  A    between atoms: _445  and  _447
REMARK  184  A    between atoms: _447  and  _448
REMARK  185  A    between atoms: _447  and  _450
REMARK  186  A    between atoms: _450  and  _451
REMARK  187  A    between atoms: _451  and  _452
REMARK  188  A    between atoms: _452  and  _453
REMARK  189  A    between atoms: _462  and  _464
REMARK  190  A    between atoms: _464  and  _465
REMARK  191  A    between atoms: _464  and  _467
REMARK  192  A    between atoms: _467  and  _468
REMARK  193  A    between atoms: _473  and  _475
REMARK  194  A    between atoms: _475  and  _476
REMARK  195  A    between atoms: _475  and  _478
REMARK  196  A    between atoms: _481  and  _483
REMARK  197  A    between atoms: _483  and  _484
REMARK  198  A    between atoms: _483  and  _486
REMARK  199  A    between atoms: _486  and  _487
REMARK  200  A    between atoms: _490  and  _492
REMARK  201  A    between atoms: _492  and  _493
REMARK  202  A    between atoms: _492  and  _495
REMARK  203  A    between atoms: _498  and  _500
REMARK  204  A    between atoms: _500  and  _501
REMARK  205  A    between atoms: _500  and  _503
REMARK  206  A    between atoms: _503  and  _504
REMARK  207  A    between atoms: _504  and  _505
REMARK  208  A    between atoms: _505  and  _506
REMARK  209  A    between atoms: _506  and  _507
REMARK  210  A    between atoms: _511  and  _513
REMARK  211  A    between atoms: _513  and  _514
REMARK  212  A    between atoms: _513  and  _516
REMARK  213  A    between atoms: _516  and  _517
REMARK  214  A    between atoms: _520  and  _522
REMARK  215  A    between atoms: _522  and  _523
REMARK  216  A    between atoms: _522  and  _525
REMARK  217  A    between atoms: _525  and  _526
REMARK  218  A    between atoms: _529  and  _531
REMARK  219  A    between atoms: _531  and  _532
REMARK  220  A    between atoms: _531  and  _534
REMARK  221  A    between atoms: _534  and  _535
REMARK  222  A    between atoms: _538  and  _540
REMARK  223  A    between atoms: _540  and  _541
REMARK  224  A    between atoms: _540  and  _543
REMARK  225  A    between atoms: _543  and  _544
REMARK  226  A    between atoms: _550  and  _552
REMARK  227  A    between atoms: _552  and  _553
REMARK  228  A    between atoms: _555  and  _557
REMARK  229  A    between atoms: _557  and  _558
REMARK  230  A    between atoms: _557  and  _560
REMARK  231  A    between atoms: _560  and  _561
REMARK  232  A    between atoms: _564  and  _566
REMARK  233  A    between atoms: _566  and  _567
REMARK  234  A    between atoms: _570  and  _572
REMARK  235  A    between atoms: _572  and  _573
REMARK  236  A    between atoms: _572  and  _575
REMARK  237  A    between atoms: _575  and  _576
REMARK  238  A    between atoms: _586  and  _588
REMARK  239  A    between atoms: _588  and  _589
REMARK  240  A    between atoms: _588  and  _591
REMARK  241  A    between atoms: _591  and  _592
REMARK  242  A    between atoms: _592  and  _593
REMARK  243  A    between atoms: _596  and  _598
REMARK  244  A    between atoms: _598  and  _599
REMARK  245  A    between atoms: _601  and  _603
REMARK  246  A    between atoms: _603  and  _604
REMARK  247  A    between atoms: _603  and  _606
REMARK  248  A    between atoms: _606  and  _607
REMARK  249  A    between atoms: _610  and  _612
REMARK  250  A    between atoms: _612  and  _613
REMARK  251  A    between atoms: _612  and  _615
REMARK  252  A    between atoms: _615  and  _616
REMARK  253  A    between atoms: _616  and  _617
REMARK                            x       y       z     vdW  Elec       q    Type
REMARK                         _______ _______ _______ _____ _____    ______ ____
ROOT
ATOM      1  O   HOH     1       7.642  36.696  42.947  0.00  0.00    +0.000 OA
ENDROOT
TORSDOF 0
REMARK  Name = ../refined-set-2016/1xkk/1xkk_pocket.pdb
REMARK  253 active torsions:
REMARK  status: ('A' for Active; 'I' for Inactive)
REMARK    1  A    between atoms: _1  and  _3
REMARK    2  A    between atoms: _3  and  _4
REMARK    3  A    between atoms: _3  and  _6
REMARK    4  A    between atoms: _9  and  _11
REMARK    5  A    between atoms: _11  and  _12
REMARK    6  A    between atoms: _11  and  _14
REMARK    7  A    between atoms: _14  and  _15
REMARK    8  A    between atoms: _18  and  _20
REMARK    9  A    between atoms: _20  and  _21
REMARK   10  A    between atoms: _23  and  _25
REMARK   11  A    between atoms: _25  and  _26
REMARK   12  A    between atoms: _25  and  _28
REMARK   13  A    between atoms: _28  and  _29
REMARK   14  A    between atoms: _31  and  _33
REMARK   15  A    between atoms: _33  and  _34
REMARK   16  A    between atoms: _36  and  _38
REMARK   17  A    between atoms: _38  and  _39
REMARK   18  A    between atoms: _38  and  _41
REMARK   19  A    between atoms: _41  and  _42
REMARK   20  A    between atoms: _48  and  _50
REMARK   21  A    between atoms: _50  and  _51
REMARK   22  A    between atoms: _50  and  _53
REMARK   23  A    between atoms: _53  and  _54
REMARK   24  A    between atoms: _57  and  _59
REMARK   25  A    between atoms: _59  and  _60
REMARK   26  A    between atoms: _59  and  _62
REMARK   27  A    between atoms: _65  and  _67
REMARK   28  A    between atoms: _67  and  _68
REMARK   29  A    between atoms: _67  and  _70
REMARK   30  A    between atoms: _70  and  _71
REMARK   31  A    between atoms: _76  and  _77
REMARK   32  A    between atoms: _79  and  _81
REMARK   33  A    between atoms: _81  and  _82
REMARK   34  A    between atoms: _81  and  _84
REMARK   35  A    between atoms: _84  and  _85
REMARK   36  A    between atoms: _85  and  _86
REMARK   37  A    between atoms: _86  and  _87
REMARK   38  A    between atoms: _87  and  _88
REMARK   39  A    between atoms: _92  and  _94
REMARK   40  A    between atoms: _94  and  _95
REMARK   41  A    between atoms: _98  and  _99
REMARK   42  A    between atoms: _104  and  _106
REMARK   43  A    between atoms: _106  and  _107
REMARK   44  A    between atoms: _106  and  _109
REMARK   45  A    between atoms: _112  and  _114
REMARK   46  A    between atoms: _114  and  _115
REMARK   47  A    between atoms: _118  and  _120
REMARK   48  A    between atoms: _120  and  _121
REMARK   49  A    between atoms: _120  and  _123
REMARK   50  A    between atoms: _123  and  _124
REMARK   51  A    between atoms: _127  and  _129
REMARK   52  A    between atoms: _129  and  _130
REMARK   53  A    between atoms: _129  and  _132
REMARK   54  A    between atoms: _132  and  _133
REMARK   55  A    between atoms: _133  and  _134
REMARK   56  A    between atoms: _134  and  _135
REMARK   57  A    between atoms: _135  and  _136
REMARK   58  A    between atoms: _140  and  _142
REMARK   59  A    between atoms: _142  and  _143
REMARK   60  A    between atoms: _142  and  _145
REMARK   61  A    between atoms: _145  and  _146
REMARK   62  A    between atoms: _146  and  _147
REMARK   63  A    between atoms: _150  and  _152
REMARK   64  A    between atoms: _152  and  _153
REMARK   65  A    between atoms: _152  and  _155
REMARK   66  A    between atoms: _155  and  _156
REMARK   67  A    between atoms: _159  and  _161
REMARK   68  A    between atoms: _161  and  _162
REMARK   69  A    between atoms: _161  and  _164
REMARK   70  A    between atoms: _164  and  _165
REMARK   71  A    between atoms: _165  and  _166
REMARK   72  A    between atoms: _169  and  _171
REMARK   73  A    between atoms: _171  and  _172
REMARK   74  A    between atoms: _175  and  _177
REMARK   75  A    between atoms: _177  and  _178
REMARK   76  A    between atoms: _177  and  _180
REMARK   77  A    between atoms: _183  and  _185
REMARK   78  A    between atoms: _185  and  _186
REMARK   79  A    between atoms: _185  and  _188
REMARK   80  A    between atoms: _188  and  _189
REMARK   81  A    between atoms: _189  and  _190
REMARK   82  A    between atoms: _192  and  _194
REMARK   83  A    between atoms: _194  and  _195
REMARK   84  A    between atoms: _198  and  _200
REMARK   85  A    between atoms: _200  and  _201
REMARK   86  A    between atoms: _200  and  _203
REMARK   87  A    between atoms: _206  and  _208
REMARK   88  A    between atoms: _208  and  _209
REMARK   89  A    between atoms: _208  and  _211
REMARK   90  A    between atoms: _214  and  _216
REMARK   91  A    between atoms: _216  and  _217
REMARK   92  A    between atoms: _216  and  _219
REMARK   93  A    between atoms: _221  and  _223
REMARK   94  A    between atoms: _223  and  _224
REMARK   95  A    between atoms: _223  and  _226
REMARK   96  A    between atoms: _226  and  _227
REMARK   97  A    between atoms: _227  and  _228
REMARK   98  A    between atoms: _228  and  _229
REMARK   99  A    between atoms: _238  and  _240
REMARK  100  A    between atoms: _240  and  _241
REMARK  101  A    between atoms: _240  and  _243
REMARK  102  A    between atoms: _243  and  _244
REMARK  103  A    between atoms: _247  and  _249
REMARK  104  A    between atoms: _249  and  _250
REMARK  105  A    between atoms: _249  and  _252
REMARK  106  A    between atoms: _252  and  _253
REMARK  107  A    between atoms: _256  and  _258
REMARK  108  A    between atoms: _258  and  _259
REMARK  109  A    between atoms: _261  and  _263
REMARK  110  A    between atoms: _263  and  _264
REMARK  111  A    between atoms: _263  and  _266
REMARK  112  A    between atoms: _266  and  _267
REMARK  113  A    between atoms: _267  and  _268
REMARK  114  A    between atoms: _273  and  _275
REMARK  115  A    between atoms: _275  and  _276
REMARK  116  A    between atoms: _275  and  _278
REMARK  117  A    between atoms: _278  and  _279
REMARK  118  A    between atoms: _282  and  _284
REMARK  119  A    between atoms: _284  and  _285
REMARK  120  A    between atoms: _284  and  _287
REMARK  121  A    between atoms: _287  and  _288
REMARK  122  A    between atoms: _291  and  _293
REMARK  123  A    between atoms: _293  and  _294
REMARK  124  A    between atoms: _293  and  _296
REMARK  125  A    between atoms: _296  and  _297
REMARK  126  A    between atoms: _300  and  _302
REMARK  127  A    between atoms: _302  and  _303
REMARK  128  A    between atoms: _302  and  _305
REMARK  129  A    between atoms: _305  and  _306
REMARK  130  A    between atoms: _306  and  _307
REMARK  131  A    between atoms: _312  and  _314
REMARK  132  A    between atoms: _314  and  _315
REMARK  133  A    between atoms: _314  and  _317
REMARK  134  A    between atoms: _317  and  _318
REMARK  135  A    between atoms: _321  and  _323
REMARK  136  A    between atoms: _323  and  _324
REMARK  137  A    between atoms: _323  and  _326
REMARK  138  A    between atoms: _326  and  _327
REMARK  139  A    between atoms: _327  and  _328
REMARK  140  A    between atoms: _331  and  _332
REMARK  141  A    between atoms: _337  and  _339
REMARK  142  A    between atoms: _339  and  _340
REMARK  143  A    between atoms: _339  and  _342
REMARK  144  A    between atoms: _342  and  _343
REMARK  145  A    between atoms: _349  and  _351
REMARK  146  A    between atoms: _351  and  _352
REMARK  147  A    between atoms: _354  and  _356
REMARK  148  A    between atoms: _356  and  _357
REMARK  149  A    between atoms: _356  and  _359
REMARK  150  A    between atoms: _361  and  _363
REMARK  151  A    between atoms: _363  and  _364
REMARK  152  A    between atoms: _363  and  _366
REMARK  153  A    between atoms: _366  and  _367
REMARK  154  A    between atoms: _370  and  _372
REMARK  155  A    between atoms: _372  and  _373
REMARK  156  A    between atoms: _372  and  _375
REMARK  157  A    between atoms: _375  and  _376
REMARK  158  A    between atoms: _379  and  _381
REMARK  159  A    between atoms: _381  and  _382
REMARK  160  A    between atoms: _381  and  _384
REMARK  161  A    between atoms: _384  and  _385
REMARK  162  A    between atoms: _388  and  _390
REMARK  163  A    between atoms: _390  and  _391
REMARK  164  A    between atoms: _390  and  _393
REMARK  165  A    between atoms: _393  and  _394
REMARK  166  A    between atoms: _399  and  _400
REMARK  167  A    between atoms: _402  and  _404
REMARK  168  A    between atoms: _404  and  _405
REMARK  169  A    between atoms: _404  and  _407
REMARK  170  A    between atoms: _407  and  _408
REMARK  171  A    between atoms: _408  and  _409
REMARK  172  A    between atoms: _409  and  _410
REMARK  173  A    between atoms: _419  and  _421
REMARK  174  A    between atoms: _421  and  _422
REMARK  175  A    between atoms: _421  and  _424
REMARK  176  A    between atoms: _424  and  _425
REMARK  177  A    between atoms: _428  and  _430
REMARK  178  A    between atoms: _430  and  _431
REMARK  179  A    between atoms: _430  and  _433
REMARK  180  A    between atoms: _433  and  _434
REMARK  181  A    between atoms: _439  and  _441
REMARK  182  A    between atoms: _441  and  _442
REMARK  183  A    between atoms: _445  and  _447
REMARK  184  A    between atoms: _447  and  _448
REMARK  185  A    between atoms: _447  and  _450
REMARK  186  A    between atoms: _450  and  _451
REMARK  187  A    between atoms: _451  and  _452
REMARK  188  A    between atoms: _452  and  _453
REMARK  189  A    between atoms: _462  and  _464
REMARK  190  A    between atoms: _464  and  _465
REMARK  191  A    between atoms: _464  and  _467
REMARK  192  A    between atoms: _467  and  _468
REMARK  193  A    between atoms: _473  and  _475
REMARK  194  A    between atoms: _475  and  _476
REMARK  195  A    between atoms: _475  and  _478
REMARK  196  A    between atoms: _481  and  _483
REMARK  197  A    between atoms: _483  and  _484
REMARK  198  A    between atoms: _483  and  _486
REMARK  199  A    between atoms: _486  and  _487
REMARK  200  A    between atoms: _490  and  _492
REMARK  201  A    between atoms: _492  and  _493
REMARK  202  A    between atoms: _492  and  _495
REMARK  203  A    between atoms: _498  and  _500
REMARK  204  A    between atoms: _500  and  _501
REMARK  205  A    between atoms: _500  and  _503
REMARK  206  A    between atoms: _503  and  _504
REMARK  207  A    between atoms: _504  and  _505
REMARK  208  A    between atoms: _505  and  _506
REMARK  209  A    between atoms: _506  and  _507
REMARK  210  A    between atoms: _511  and  _513
REMARK  211  A    between atoms: _513  and  _514
REMARK  212  A    between atoms: _513  and  _516
REMARK  213  A    between atoms: _516  and  _517
REMARK  214  A    between atoms: _520  and  _522
REMARK  215  A    between atoms: _522  and  _523
REMARK  216  A    between atoms: _522  and  _525
REMARK  217  A    between atoms: _525  and  _526
REMARK  218  A    between atoms: _529  and  _531
REMARK  219  A    between atoms: _531  and  _532
REMARK  220  A    between atoms: _531  and  _534
REMARK  221  A    between atoms: _534  and  _535
REMARK  222  A    between atoms: _538  and  _540
REMARK  223  A    between atoms: _540  and  _541
REMARK  224  A    between atoms: _540  and  _543
REMARK  225  A    between atoms: _543  and  _544
REMARK  226  A    between atoms: _550  and  _552
REMARK  227  A    between atoms: _552  and  _553
REMARK  228  A    between atoms: _555  and  _557
REMARK  229  A    between atoms: _557  and  _558
REMARK  230  A    between atoms: _557  and  _560
REMARK  231  A    between atoms: _560  and  _561
REMARK  232  A    between atoms: _564  and  _566
REMARK  233  A    between atoms: _566  and  _567
REMARK  234  A    between atoms: _570  and  _572
REMARK  235  A    between atoms: _572  and  _573
REMARK  236  A    between atoms: _572  and  _575
REMARK  237  A    between atoms: _575  and  _576
REMARK  238  A    between atoms: _586  and  _588
REMARK  239  A    between atoms: _588  and  _589
REMARK  240  A    between atoms: _588  and  _591
REMARK  241  A    between atoms: _591  and  _592
REMARK  242  A    between atoms: _592  and  _593
REMARK  243  A    between atoms: _596  and  _598
REMARK  244  A    between atoms: _598  and  _599
REMARK  245  A    between atoms: _601  and  _603
REMARK  246  A    between atoms: _603  and  _604
REMARK  247  A    between atoms: _603  and  _606
REMARK  248  A    between atoms: _606  and  _607
REMARK  249  A    between atoms: _610  and  _612
REMARK  250  A    between atoms: _612  and  _613
REMARK  251  A    between atoms: _612  and  _615
REMARK  252  A    between atoms: _615  and  _616
REMARK  253  A    between atoms: _616  and  _617
REMARK                            x       y       z     vdW  Elec       q    Type
REMARK                         _______ _______ _______ _____ _____    ______ ____
ROOT
ATOM      1  O   HOH     1      25.212  39.893  32.746  0.00  0.00    +0.000 OA
ENDROOT
TORSDOF 0
REMARK  Name = ../refined-set-2016/1xkk/1xkk_pocket.pdb
REMARK  253 active torsions:
REMARK  status: ('A' for Active; 'I' for Inactive)
REMARK    1  A    between atoms: _1  and  _3
REMARK    2  A    between atoms: _3  and  _4
REMARK    3  A    between atoms: _3  and  _6
REMARK    4  A    between atoms: _9  and  _11
REMARK    5  A    between atoms: _11  and  _12
REMARK    6  A    between atoms: _11  and  _14
REMARK    7  A    between atoms: _14  and  _15
REMARK    8  A    between atoms: _18  and  _20
REMARK    9  A    between atoms: _20  and  _21
REMARK   10  A    between atoms: _23  and  _25
REMARK   11  A    between atoms: _25  and  _26
REMARK   12  A    between atoms: _25  and  _28
REMARK   13  A    between atoms: _28  and  _29
REMARK   14  A    between atoms: _31  and  _33
REMARK   15  A    between atoms: _33  and  _34
REMARK   16  A    between atoms: _36  and  _38
REMARK   17  A    between atoms: _38  and  _39
REMARK   18  A    between atoms: _38  and  _41
REMARK   19  A    between atoms: _41  and  _42
REMARK   20  A    between atoms: _48  and  _50
REMARK   21  A    between atoms: _50  and  _51
REMARK   22  A    between atoms: _50  and  _53
REMARK   23  A    between atoms: _53  and  _54
REMARK   24  A    between atoms: _57  and  _59
REMARK   25  A    between atoms: _59  and  _60
REMARK   26  A    between atoms: _59  and  _62
REMARK   27  A    between atoms: _65  and  _67
REMARK   28  A    between atoms: _67  and  _68
REMARK   29  A    between atoms: _67  and  _70
REMARK   30  A    between atoms: _70  and  _71
REMARK   31  A    between atoms: _76  and  _77
REMARK   32  A    between atoms: _79  and  _81
REMARK   33  A    between atoms: _81  and  _82
REMARK   34  A    between atoms: _81  and  _84
REMARK   35  A    between atoms: _84  and  _85
REMARK   36  A    between atoms: _85  and  _86
REMARK   37  A    between atoms: _86  and  _87
REMARK   38  A    between atoms: _87  and  _88
REMARK   39  A    between atoms: _92  and  _94
REMARK   40  A    between atoms: _94  and  _95
REMARK   41  A    between atoms: _98  and  _99
REMARK   42  A    between atoms: _104  and  _106
REMARK   43  A    between atoms: _106  and  _107
REMARK   44  A    between atoms: _106  and  _109
REMARK   45  A    between atoms: _112  and  _114
REMARK   46  A    between atoms: _114  and  _115
REMARK   47  A    between atoms: _118  and  _120
REMARK   48  A    between atoms: _120  and  _121
REMARK   49  A    between atoms: _120  and  _123
REMARK   50  A    between atoms: _123  and  _124
REMARK   51  A    between atoms: _127  and  _129
REMARK   52  A    between atoms: _129  and  _130
REMARK   53  A    between atoms: _129  and  _132
REMARK   54  A    between atoms: _132  and  _133
REMARK   55  A    between atoms: _133  and  _134
REMARK   56  A    between atoms: _134  and  _135
REMARK   57  A    between atoms: _135  and  _136
REMARK   58  A    between atoms: _140  and  _142
REMARK   59  A    between atoms: _142  and  _143
REMARK   60  A    between atoms: _142  and  _145
REMARK   61  A    between atoms: _145  and  _146
REMARK   62  A    between atoms: _146  and  _147
REMARK   63  A    between atoms: _150  and  _152
REMARK   64  A    between atoms: _152  and  _153
REMARK   65  A    between atoms: _152  and  _155
REMARK   66  A    between atoms: _155  and  _156
REMARK   67  A    between atoms: _159  and  _161
REMARK   68  A    between atoms: _161  and  _162
REMARK   69  A    between atoms: _161  and  _164
REMARK   70  A    between atoms: _164  and  _165
REMARK   71  A    between atoms: _165  and  _166
REMARK   72  A    between atoms: _169  and  _171
REMARK   73  A    between atoms: _171  and  _172
REMARK   74  A    between atoms: _175  and  _177
REMARK   75  A    between atoms: _177  and  _178
REMARK   76  A    between atoms: _177  and  _180
REMARK   77  A    between atoms: _183  and  _185
REMARK   78  A    between atoms: _185  and  _186
REMARK   79  A    between atoms: _185  and  _188
REMARK   80  A    between atoms: _188  and  _189
REMARK   81  A    between atoms: _189  and  _190
REMARK   82  A    between atoms: _192  and  _194
REMARK   83  A    between atoms: _194  and  _195
REMARK   84  A    between atoms: _198  and  _200
REMARK   85  A    between atoms: _200  and  _201
REMARK   86  A    between atoms: _200  and  _203
REMARK   87  A    between atoms: _206  and  _208
REMARK   88  A    between atoms: _208  and  _209
REMARK   89  A    between atoms: _208  and  _211
REMARK   90  A    between atoms: _214  and  _216
REMARK   91  A    between atoms: _216  and  _217
REMARK   92  A    between atoms: _216  and  _219
REMARK   93  A    between atoms: _221  and  _223
REMARK   94  A    between atoms: _223  and  _224
REMARK   95  A    between atoms: _223  and  _226
REMARK   96  A    between atoms: _226  and  _227
REMARK   97  A    between atoms: _227  and  _228
REMARK   98  A    between atoms: _228  and  _229
REMARK   99  A    between atoms: _238  and  _240
REMARK  100  A    between atoms: _240  and  _241
REMARK  101  A    between atoms: _240  and  _243
REMARK  102  A    between atoms: _243  and  _244
REMARK  103  A    between atoms: _247  and  _249
REMARK  104  A    between atoms: _249  and  _250
REMARK  105  A    between atoms: _249  and  _252
REMARK  106  A    between atoms: _252  and  _253
REMARK  107  A    between atoms: _256  and  _258
REMARK  108  A    between atoms: _258  and  _259
REMARK  109  A    between atoms: _261  and  _263
REMARK  110  A    between atoms: _263  and  _264
REMARK  111  A    between atoms: _263  and  _266
REMARK  112  A    between atoms: _266  and  _267
REMARK  113  A    between atoms: _267  and  _268
REMARK  114  A    between atoms: _273  and  _275
REMARK  115  A    between atoms: _275  and  _276
REMARK  116  A    between atoms: _275  and  _278
REMARK  117  A    between atoms: _278  and  _279
REMARK  118  A    between atoms: _282  and  _284
REMARK  119  A    between atoms: _284  and  _285
REMARK  120  A    between atoms: _284  and  _287
REMARK  121  A    between atoms: _287  and  _288
REMARK  122  A    between atoms: _291  and  _293
REMARK  123  A    between atoms: _293  and  _294
REMARK  124  A    between atoms: _293  and  _296
REMARK  125  A    between atoms: _296  and  _297
REMARK  126  A    between atoms: _300  and  _302
REMARK  127  A    between atoms: _302  and  _303
REMARK  128  A    between atoms: _302  and  _305
REMARK  129  A    between atoms: _305  and  _306
REMARK  130  A    between atoms: _306  and  _307
REMARK  131  A    between atoms: _312  and  _314
REMARK  132  A    between atoms: _314  and  _315
REMARK  133  A    between atoms: _314  and  _317
REMARK  134  A    between atoms: _317  and  _318
REMARK  135  A    between atoms: _321  and  _323
REMARK  136  A    between atoms: _323  and  _324
REMARK  137  A    between atoms: _323  and  _326
REMARK  138  A    between atoms: _326  and  _327
REMARK  139  A    between atoms: _327  and  _328
REMARK  140  A    between atoms: _331  and  _332
REMARK  141  A    between atoms: _337  and  _339
REMARK  142  A    between atoms: _339  and  _340
REMARK  143  A    between atoms: _339  and  _342
REMARK  144  A    between atoms: _342  and  _343
REMARK  145  A    between atoms: _349  and  _351
REMARK  146  A    between atoms: _351  and  _352
REMARK  147  A    between atoms: _354  and  _356
REMARK  148  A    between atoms: _356  and  _357
REMARK  149  A    between atoms: _356  and  _359
REMARK  150  A    between atoms: _361  and  _363
REMARK  151  A    between atoms: _363  and  _364
REMARK  152  A    between atoms: _363  and  _366
REMARK  153  A    between atoms: _366  and  _367
REMARK  154  A    between atoms: _370  and  _372
REMARK  155  A    between atoms: _372  and  _373
REMARK  156  A    between atoms: _372  and  _375
REMARK  157  A    between atoms: _375  and  _376
REMARK  158  A    between atoms: _379  and  _381
REMARK  159  A    between atoms: _381  and  _382
REMARK  160  A    between atoms: _381  and  _384
REMARK  161  A    between atoms: _384  and  _385
REMARK  162  A    between atoms: _388  and  _390
REMARK  163  A    between atoms: _390  and  _391
REMARK  164  A    between atoms: _390  and  _393
REMARK  165  A    between atoms: _393  and  _394
REMARK  166  A    between atoms: _399  and  _400
REMARK  167  A    between atoms: _402  and  _404
REMARK  168  A    between atoms: _404  and  _405
REMARK  169  A    between atoms: _404  and  _407
REMARK  170  A    between atoms: _407  and  _408
REMARK  171  A    between atoms: _408  and  _409
REMARK  172  A    between atoms: _409  and  _410
REMARK  173  A    between atoms: _419  and  _421
REMARK  174  A    between atoms: _421  and  _422
REMARK  175  A    between atoms: _421  and  _424
REMARK  176  A    between atoms: _424  and  _425
REMARK  177  A    between atoms: _428  and  _430
REMARK  178  A    between atoms: _430  and  _431
REMARK  179  A    between atoms: _430  and  _433
REMARK  180  A    between atoms: _433  and  _434
REMARK  181  A    between atoms: _439  and  _441
REMARK  182  A    between atoms: _441  and  _442
REMARK  183  A    between atoms: _445  and  _447
REMARK  184  A    between atoms: _447  and  _448
REMARK  185  A    between atoms: _447  and  _450
REMARK  186  A    between atoms: _450  and  _451
REMARK  187  A    between atoms: _451  and  _452
REMARK  188  A    between atoms: _452  and  _453
REMARK  189  A    between atoms: _462  and  _464
REMARK  190  A    between atoms: _464  and  _465
REMARK  191  A    between atoms: _464  and  _467
REMARK  192  A    between atoms: _467  and  _468
REMARK  193  A    between atoms: _473  and  _475
REMARK  194  A    between atoms: _475  and  _476
REMARK  195  A    between atoms: _475  and  _478
REMARK  196  A    between atoms: _481  and  _483
REMARK  197  A    between atoms: _483  and  _484
REMARK  198  A    between atoms: _483  and  _486
REMARK  199  A    between atoms: _486  and  _487
REMARK  200  A    between atoms: _490  and  _492
REMARK  201  A    between atoms: _492  and  _493
REMARK  202  A    between atoms: _492  and  _495
REMARK  203  A    between atoms: _498  and  _500
REMARK  204  A    between atoms: _500  and  _501
REMARK  205  A    between atoms: _500  and  _503
REMARK  206  A    between atoms: _503  and  _504
REMARK  207  A    between atoms: _504  and  _505
REMARK  208  A    between atoms: _505  and  _506
REMARK  209  A    between atoms: _506  and  _507
REMARK  210  A    between atoms: _511  and  _513
REMARK  211  A    between atoms: _513  and  _514
REMARK  212  A    between atoms: _513  and  _516
REMARK  213  A    between atoms: _516  and  _517
REMARK  214  A    between atoms: _520  and  _522
REMARK  215  A    between atoms: _522  and  _523
REMARK  216  A    between atoms: _522  and  _525
REMARK  217  A    between atoms: _525  and  _526
REMARK  218  A    between atoms: _529  and  _531
REMARK  219  A    between atoms: _531  and  _532
REMARK  220  A    between atoms: _531  and  _534
REMARK  221  A    between atoms: _534  and  _535
REMARK  222  A    between atoms: _538  and  _540
REMARK  223  A    between atoms: _540  and  _541
REMARK  224  A    between atoms: _540  and  _543
REMARK  225  A    between atoms: _543  and  _544
REMARK  226  A    between atoms: _550  and  _552
REMARK  227  A    between atoms: _552  and  _553
REMARK  228  A    between atoms: _555  and  _557
REMARK  229  A    between atoms: _557  and  _558
REMARK  230  A    between atoms: _557  and  _560
REMARK  231  A    between atoms: _560  and  _561
REMARK  232  A    between atoms: _564  and  _566
REMARK  233  A    between atoms: _566  and  _567
REMARK  234  A    between atoms: _570  and  _572
REMARK  235  A    between atoms: _572  and  _573
REMARK  236  A    between atoms: _572  and  _575
REMARK  237  A    between atoms: _575  and  _576
REMARK  238  A    between atoms: _586  and  _588
REMARK  239  A    between atoms: _588  and  _589
REMARK  240  A    between atoms: _588  and  _591
REMARK  241  A    between atoms: _591  and  _592
REMARK  242  A    between atoms: _592  and  _593
REMARK  243  A    between atoms: _596  and  _598
REMARK  244  A    between atoms: _598  and  _599
REMARK  245  A    between atoms: _601  and  _603
REMARK  246  A    between atoms: _603  and  _604
REMARK  247  A    between atoms: _603  and  _606
REMARK  248  A    between atoms: _606  and  _607
REMARK  249  A    between atoms: _610  and  _612
REMARK  250  A    between atoms: _612  and  _613
REMARK  251  A    between atoms: _612  and  _615
REMARK  252  A    between atoms: _615  and  _616
REMARK  253  A    between atoms: _616  and  _617
REMARK                            x       y       z     vdW  Elec       q    Type
REMARK                         _______ _______ _______ _____ _____    ______ ____
ROOT
ATOM      1  O   HOH     1      18.918  33.724  38.420  0.00  0.00    +0.000 OA
ENDROOT
TORSDOF 0
REMARK  Name = ../refined-set-2016/1xkk/1xkk_pocket.pdb
REMARK  253 active torsions:
REMARK  status: ('A' for Active; 'I' for Inactive)
REMARK    1  A    between atoms: _1  and  _3
REMARK    2  A    between atoms: _3  and  _4
REMARK    3  A    between atoms: _3  and  _6
REMARK    4  A    between atoms: _9  and  _11
REMARK    5  A    between atoms: _11  and  _12
REMARK    6  A    between atoms: _11  and  _14
REMARK    7  A    between atoms: _14  and  _15
REMARK    8  A    between atoms: _18  and  _20
REMARK    9  A    between atoms: _20  and  _21
REMARK   10  A    between atoms: _23  and  _25
REMARK   11  A    between atoms: _25  and  _26
REMARK   12  A    between atoms: _25  and  _28
REMARK   13  A    between atoms: _28  and  _29
REMARK   14  A    between atoms: _31  and  _33
REMARK   15  A    between atoms: _33  and  _34
REMARK   16  A    between atoms: _36  and  _38
REMARK   17  A    between atoms: _38  and  _39
REMARK   18  A    between atoms: _38  and  _41
REMARK   19  A    between atoms: _41  and  _42
REMARK   20  A    between atoms: _48  and  _50
REMARK   21  A    between atoms: _50  and  _51
REMARK   22  A    between atoms: _50  and  _53
REMARK   23  A    between atoms: _53  and  _54
REMARK   24  A    between atoms: _57  and  _59
REMARK   25  A    between atoms: _59  and  _60
REMARK   26  A    between atoms: _59  and  _62
REMARK   27  A    between atoms: _65  and  _67
REMARK   28  A    between atoms: _67  and  _68
REMARK   29  A    between atoms: _67  and  _70
REMARK   30  A    between atoms: _70  and  _71
REMARK   31  A    between atoms: _76  and  _77
REMARK   32  A    between atoms: _79  and  _81
REMARK   33  A    between atoms: _81  and  _82
REMARK   34  A    between atoms: _81  and  _84
REMARK   35  A    between atoms: _84  and  _85
REMARK   36  A    between atoms: _85  and  _86
REMARK   37  A    between atoms: _86  and  _87
REMARK   38  A    between atoms: _87  and  _88
REMARK   39  A    between atoms: _92  and  _94
REMARK   40  A    between atoms: _94  and  _95
REMARK   41  A    between atoms: _98  and  _99
REMARK   42  A    between atoms: _104  and  _106
REMARK   43  A    between atoms: _106  and  _107
REMARK   44  A    between atoms: _106  and  _109
REMARK   45  A    between atoms: _112  and  _114
REMARK   46  A    between atoms: _114  and  _115
REMARK   47  A    between atoms: _118  and  _120
REMARK   48  A    between atoms: _120  and  _121
REMARK   49  A    between atoms: _120  and  _123
REMARK   50  A    between atoms: _123  and  _124
REMARK   51  A    between atoms: _127  and  _129
REMARK   52  A    between atoms: _129  and  _130
REMARK   53  A    between atoms: _129  and  _132
REMARK   54  A    between atoms: _132  and  _133
REMARK   55  A    between atoms: _133  and  _134
REMARK   56  A    between atoms: _134  and  _135
REMARK   57  A    between atoms: _135  and  _136
REMARK   58  A    between atoms: _140  and  _142
REMARK   59  A    between atoms: _142  and  _143
REMARK   60  A    between atoms: _142  and  _145
REMARK   61  A    between atoms: _145  and  _146
REMARK   62  A    between atoms: _146  and  _147
REMARK   63  A    between atoms: _150  and  _152
REMARK   64  A    between atoms: _152  and  _153
REMARK   65  A    between atoms: _152  and  _155
REMARK   66  A    between atoms: _155  and  _156
REMARK   67  A    between atoms: _159  and  _161
REMARK   68  A    between atoms: _161  and  _162
REMARK   69  A    between atoms: _161  and  _164
REMARK   70  A    between atoms: _164  and  _165
REMARK   71  A    between atoms: _165  and  _166
REMARK   72  A    between atoms: _169  and  _171
REMARK   73  A    between atoms: _171  and  _172
REMARK   74  A    between atoms: _175  and  _177
REMARK   75  A    between atoms: _177  and  _178
REMARK   76  A    between atoms: _177  and  _180
REMARK   77  A    between atoms: _183  and  _185
REMARK   78  A    between atoms: _185  and  _186
REMARK   79  A    between atoms: _185  and  _188
REMARK   80  A    between atoms: _188  and  _189
REMARK   81  A    between atoms: _189  and  _190
REMARK   82  A    between atoms: _192  and  _194
REMARK   83  A    between atoms: _194  and  _195
REMARK   84  A    between atoms: _198  and  _200
REMARK   85  A    between atoms: _200  and  _201
REMARK   86  A    between atoms: _200  and  _203
REMARK   87  A    between atoms: _206  and  _208
REMARK   88  A    between atoms: _208  and  _209
REMARK   89  A    between atoms: _208  and  _211
REMARK   90  A    between atoms: _214  and  _216
REMARK   91  A    between atoms: _216  and  _217
REMARK   92  A    between atoms: _216  and  _219
REMARK   93  A    between atoms: _221  and  _223
REMARK   94  A    between atoms: _223  and  _224
REMARK   95  A    between atoms: _223  and  _226
REMARK   96  A    between atoms: _226  and  _227
REMARK   97  A    between atoms: _227  and  _228
REMARK   98  A    between atoms: _228  and  _229
REMARK   99  A    between atoms: _238  and  _240
REMARK  100  A    between atoms: _240  and  _241
REMARK  101  A    between atoms: _240  and  _243
REMARK  102  A    between atoms: _243  and  _244
REMARK  103  A    between atoms: _247  and  _249
REMARK  104  A    between atoms: _249  and  _250
REMARK  105  A    between atoms: _249  and  _252
REMARK  106  A    between atoms: _252  and  _253
REMARK  107  A    between atoms: _256  and  _258
REMARK  108  A    between atoms: _258  and  _259
REMARK  109  A    between atoms: _261  and  _263
REMARK  110  A    between atoms: _263  and  _264
REMARK  111  A    between atoms: _263  and  _266
REMARK  112  A    between atoms: _266  and  _267
REMARK  113  A    between atoms: _267  and  _268
REMARK  114  A    between atoms: _273  and  _275
REMARK  115  A    between atoms: _275  and  _276
REMARK  116  A    between atoms: _275  and  _278
REMARK  117  A    between atoms: _278  and  _279
REMARK  118  A    between atoms: _282  and  _284
REMARK  119  A    between atoms: _284  and  _285
REMARK  120  A    between atoms: _284  and  _287
REMARK  121  A    between atoms: _287  and  _288
REMARK  122  A    between atoms: _291  and  _293
REMARK  123  A    between atoms: _293  and  _294
REMARK  124  A    between atoms: _293  and  _296
REMARK  125  A    between atoms: _296  and  _297
REMARK  126  A    between atoms: _300  and  _302
REMARK  127  A    between atoms: _302  and  _303
REMARK  128  A    between atoms: _302  and  _305
REMARK  129  A    between atoms: _305  and  _306
REMARK  130  A    between atoms: _306  and  _307
REMARK  131  A    between atoms: _312  and  _314
REMARK  132  A    between atoms: _314  and  _315
REMARK  133  A    between atoms: _314  and  _317
REMARK  134  A    between atoms: _317  and  _318
REMARK  135  A    between atoms: _321  and  _323
REMARK  136  A    between atoms: _323  and  _324
REMARK  137  A    between atoms: _323  and  _326
REMARK  138  A    between atoms: _326  and  _327
REMARK  139  A    between atoms: _327  and  _328
REMARK  140  A    between atoms: _331  and  _332
REMARK  141  A    between atoms: _337  and  _339
REMARK  142  A    between atoms: _339  and  _340
REMARK  143  A    between atoms: _339  and  _342
REMARK  144  A    between atoms: _342  and  _343
REMARK  145  A    between atoms: _349  and  _351
REMARK  146  A    between atoms: _351  and  _352
REMARK  147  A    between atoms: _354  and  _356
REMARK  148  A    between atoms: _356  and  _357
REMARK  149  A    between atoms: _356  and  _359
REMARK  150  A    between atoms: _361  and  _363
REMARK  151  A    between atoms: _363  and  _364
REMARK  152  A    between atoms: _363  and  _366
REMARK  153  A    between atoms: _366  and  _367
REMARK  154  A    between atoms: _370  and  _372
REMARK  155  A    between atoms: _372  and  _373
REMARK  156  A    between atoms: _372  and  _375
REMARK  157  A    between atoms: _375  and  _376
REMARK  158  A    between atoms: _379  and  _381
REMARK  159  A    between atoms: _381  and  _382
REMARK  160  A    between atoms: _381  and  _384
REMARK  161  A    between atoms: _384  and  _385
REMARK  162  A    between atoms: _388  and  _390
REMARK  163  A    between atoms: _390  and  _391
REMARK  164  A    between atoms: _390  and  _393
REMARK  165  A    between atoms: _393  and  _394
REMARK  166  A    between atoms: _399  and  _400
REMARK  167  A    between atoms: _402  and  _404
REMARK  168  A    between atoms: _404  and  _405
REMARK  169  A    between atoms: _404  and  _407
REMARK  170  A    between atoms: _407  and  _408
REMARK  171  A    between atoms: _408  and  _409
REMARK  172  A    between atoms: _409  and  _410
REMARK  173  A    between atoms: _419  and  _421
REMARK  174  A    between atoms: _421  and  _422
REMARK  175  A    between atoms: _421  and  _424
REMARK  176  A    between atoms: _424  and  _425
REMARK  177  A    between atoms: _428  and  _430
REMARK  178  A    between atoms: _430  and  _431
REMARK  179  A    between atoms: _430  and  _433
REMARK  180  A    between atoms: _433  and  _434
REMARK  181  A    between atoms: _439  and  _441
REMARK  182  A    between atoms: _441  and  _442
REMARK  183  A    between atoms: _445  and  _447
REMARK  184  A    between atoms: _447  and  _448
REMARK  185  A    between atoms: _447  and  _450
REMARK  186  A    between atoms: _450  and  _451
REMARK  187  A    between atoms: _451  and  _452
REMARK  188  A    between atoms: _452  and  _453
REMARK  189  A    between atoms: _462  and  _464
REMARK  190  A    between atoms: _464  and  _465
REMARK  191  A    between atoms: _464  and  _467
REMARK  192  A    between atoms: _467  and  _468
REMARK  193  A    between atoms: _473  and  _475
REMARK  194  A    between atoms: _475  and  _476
REMARK  195  A    between atoms: _475  and  _478
REMARK  196  A    between atoms: _481  and  _483
REMARK  197  A    between atoms: _483  and  _484
REMARK  198  A    between atoms: _483  and  _486
REMARK  199  A    between atoms: _486  and  _487
REMARK  200  A    between atoms: _490  and  _492
REMARK  201  A    between atoms: _492  and  _493
REMARK  202  A    between atoms: _492  and  _495
REMARK  203  A    between atoms: _498  and  _500
REMARK  204  A    between atoms: _500  and  _501
REMARK  205  A    between atoms: _500  and  _503
REMARK  206  A    between atoms: _503  and  _504
REMARK  207  A    between atoms: _504  and  _505
REMARK  208  A    between atoms: _505  and  _506
REMARK  209  A    between atoms: _506  and  _507
REMARK  210  A    between atoms: _511  and  _513
REMARK  211  A    between atoms: _513  and  _514
REMARK  212  A    between atoms: _513  and  _516
REMARK  213  A    between atoms: _516  and  _517
REMARK  214  A    between atoms: _520  and  _522
REMARK  215  A    between atoms: _522  and  _523
REMARK  216  A    between atoms: _522  and  _525
REMARK  217  A    between atoms: _525  and  _526
REMARK  218  A    between atoms: _529  and  _531
REMARK  219  A    between atoms: _531  and  _532
REMARK  220  A    between atoms: _531  and  _534
REMARK  221  A    between atoms: _534  and  _535
REMARK  222  A    between atoms: _538  and  _540
REMARK  223  A    between atoms: _540  and  _541
REMARK  224  A    between atoms: _540  and  _543
REMARK  225  A    between atoms: _543  and  _544
REMARK  226  A    between atoms: _550  and  _552
REMARK  227  A    between atoms: _552  and  _553
REMARK  228  A    between atoms: _555  and  _557
REMARK  229  A    between atoms: _557  and  _558
REMARK  230  A    between atoms: _557  and  _560
REMARK  231  A    between atoms: _560  and  _561
REMARK  232  A    between atoms: _564  and  _566
REMARK  233  A    between atoms: _566  and  _567
REMARK  234  A    between atoms: _570  and  _572
REMARK  235  A    between atoms: _572  and  _573
REMARK  236  A    between atoms: _572  and  _575
REMARK  237  A    between atoms: _575  and  _576
REMARK  238  A    between atoms: _586  and  _588
REMARK  239  A    between atoms: _588  and  _589
REMARK  240  A    between atoms: _588  and  _591
REMARK  241  A    between atoms: _591  and  _592
REMARK  242  A    between atoms: _592  and  _593
REMARK  243  A    between atoms: _596  and  _598
REMARK  244  A    between atoms: _598  and  _599
REMARK  245  A    between atoms: _601  and  _603
REMARK  246  A    between atoms: _603  and  _604
REMARK  247  A    between atoms: _603  and  _606
REMARK  248  A    between atoms: _606  and  _607
REMARK  249  A    between atoms: _610  and  _612
REMARK  250  A    between atoms: _612  and  _613
REMARK  251  A    between atoms: _612  and  _615
REMARK  252  A    between atoms: _615  and  _616
REMARK  253  A    between atoms: _616  and  _617
REMARK                            x       y       z     vdW  Elec       q    Type
REMARK                         _______ _______ _______ _____ _____    ______ ____
ROOT
ATOM      1  O   HOH     1       5.111  32.991  36.320  0.00  0.00    +0.000 OA
ENDROOT
TORSDOF 0
REMARK  Name = ../refined-set-2016/1xkk/1xkk_pocket.pdb
REMARK  253 active torsions:
REMARK  status: ('A' for Active; 'I' for Inactive)
REMARK    1  A    between atoms: _1  and  _3
REMARK    2  A    between atoms: _3  and  _4
REMARK    3  A    between atoms: _3  and  _6
REMARK    4  A    between atoms: _9  and  _11
REMARK    5  A    between atoms: _11  and  _12
REMARK    6  A    between atoms: _11  and  _14
REMARK    7  A    between atoms: _14  and  _15
REMARK    8  A    between atoms: _18  and  _20
REMARK    9  A    between atoms: _20  and  _21
REMARK   10  A    between atoms: _23  and  _25
REMARK   11  A    between atoms: _25  and  _26
REMARK   12  A    between atoms: _25  and  _28
REMARK   13  A    between atoms: _28  and  _29
REMARK   14  A    between atoms: _31  and  _33
REMARK   15  A    between atoms: _33  and  _34
REMARK   16  A    between atoms: _36  and  _38
REMARK   17  A    between atoms: _38  and  _39
REMARK   18  A    between atoms: _38  and  _41
REMARK   19  A    between atoms: _41  and  _42
REMARK   20  A    between atoms: _48  and  _50
REMARK   21  A    between atoms: _50  and  _51
REMARK   22  A    between atoms: _50  and  _53
REMARK   23  A    between atoms: _53  and  _54
REMARK   24  A    between atoms: _57  and  _59
REMARK   25  A    between atoms: _59  and  _60
REMARK   26  A    between atoms: _59  and  _62
REMARK   27  A    between atoms: _65  and  _67
REMARK   28  A    between atoms: _67  and  _68
REMARK   29  A    between atoms: _67  and  _70
REMARK   30  A    between atoms: _70  and  _71
REMARK   31  A    between atoms: _76  and  _77
REMARK   32  A    between atoms: _79  and  _81
REMARK   33  A    between atoms: _81  and  _82
REMARK   34  A    between atoms: _81  and  _84
REMARK   35  A    between atoms: _84  and  _85
REMARK   36  A    between atoms: _85  and  _86
REMARK   37  A    between atoms: _86  and  _87
REMARK   38  A    between atoms: _87  and  _88
REMARK   39  A    between atoms: _92  and  _94
REMARK   40  A    between atoms: _94  and  _95
REMARK   41  A    between atoms: _98  and  _99
REMARK   42  A    between atoms: _104  and  _106
REMARK   43  A    between atoms: _106  and  _107
REMARK   44  A    between atoms: _106  and  _109
REMARK   45  A    between atoms: _112  and  _114
REMARK   46  A    between atoms: _114  and  _115
REMARK   47  A    between atoms: _118  and  _120
REMARK   48  A    between atoms: _120  and  _121
REMARK   49  A    between atoms: _120  and  _123
REMARK   50  A    between atoms: _123  and  _124
REMARK   51  A    between atoms: _127  and  _129
REMARK   52  A    between atoms: _129  and  _130
REMARK   53  A    between atoms: _129  and  _132
REMARK   54  A    between atoms: _132  and  _133
REMARK   55  A    between atoms: _133  and  _134
REMARK   56  A    between atoms: _134  and  _135
REMARK   57  A    between atoms: _135  and  _136
REMARK   58  A    between atoms: _140  and  _142
REMARK   59  A    between atoms: _142  and  _143
REMARK   60  A    between atoms: _142  and  _145
REMARK   61  A    between atoms: _145  and  _146
REMARK   62  A    between atoms: _146  and  _147
REMARK   63  A    between atoms: _150  and  _152
REMARK   64  A    between atoms: _152  and  _153
REMARK   65  A    between atoms: _152  and  _155
REMARK   66  A    between atoms: _155  and  _156
REMARK   67  A    between atoms: _159  and  _161
REMARK   68  A    between atoms: _161  and  _162
REMARK   69  A    between atoms: _161  and  _164
REMARK   70  A    between atoms: _164  and  _165
REMARK   71  A    between atoms: _165  and  _166
REMARK   72  A    between atoms: _169  and  _171
REMARK   73  A    between atoms: _171  and  _172
REMARK   74  A    between atoms: _175  and  _177
REMARK   75  A    between atoms: _177  and  _178
REMARK   76  A    between atoms: _177  and  _180
REMARK   77  A    between atoms: _183  and  _185
REMARK   78  A    between atoms: _185  and  _186
REMARK   79  A    between atoms: _185  and  _188
REMARK   80  A    between atoms: _188  and  _189
REMARK   81  A    between atoms: _189  and  _190
REMARK   82  A    between atoms: _192  and  _194
REMARK   83  A    between atoms: _194  and  _195
REMARK   84  A    between atoms: _198  and  _200
REMARK   85  A    between atoms: _200  and  _201
REMARK   86  A    between atoms: _200  and  _203
REMARK   87  A    between atoms: _206  and  _208
REMARK   88  A    between atoms: _208  and  _209
REMARK   89  A    between atoms: _208  and  _211
REMARK   90  A    between atoms: _214  and  _216
REMARK   91  A    between atoms: _216  and  _217
REMARK   92  A    between atoms: _216  and  _219
REMARK   93  A    between atoms: _221  and  _223
REMARK   94  A    between atoms: _223  and  _224
REMARK   95  A    between atoms: _223  and  _226
REMARK   96  A    between atoms: _226  and  _227
REMARK   97  A    between atoms: _227  and  _228
REMARK   98  A    between atoms: _228  and  _229
REMARK   99  A    between atoms: _238  and  _240
REMARK  100  A    between atoms: _240  and  _241
REMARK  101  A    between atoms: _240  and  _243
REMARK  102  A    between atoms: _243  and  _244
REMARK  103  A    between atoms: _247  and  _249
REMARK  104  A    between atoms: _249  and  _250
REMARK  105  A    between atoms: _249  and  _252
REMARK  106  A    between atoms: _252  and  _253
REMARK  107  A    between atoms: _256  and  _258
REMARK  108  A    between atoms: _258  and  _259
REMARK  109  A    between atoms: _261  and  _263
REMARK  110  A    between atoms: _263  and  _264
REMARK  111  A    between atoms: _263  and  _266
REMARK  112  A    between atoms: _266  and  _267
REMARK  113  A    between atoms: _267  and  _268
REMARK  114  A    between atoms: _273  and  _275
REMARK  115  A    between atoms: _275  and  _276
REMARK  116  A    between atoms: _275  and  _278
REMARK  117  A    between atoms: _278  and  _279
REMARK  118  A    between atoms: _282  and  _284
REMARK  119  A    between atoms: _284  and  _285
REMARK  120  A    between atoms: _284  and  _287
REMARK  121  A    between atoms: _287  and  _288
REMARK  122  A    between atoms: _291  and  _293
REMARK  123  A    between atoms: _293  and  _294
REMARK  124  A    between atoms: _293  and  _296
REMARK  125  A    between atoms: _296  and  _297
REMARK  126  A    between atoms: _300  and  _302
REMARK  127  A    between atoms: _302  and  _303
REMARK  128  A    between atoms: _302  and  _305
REMARK  129  A    between atoms: _305  and  _306
REMARK  130  A    between atoms: _306  and  _307
REMARK  131  A    between atoms: _312  and  _314
REMARK  132  A    between atoms: _314  and  _315
REMARK  133  A    between atoms: _314  and  _317
REMARK  134  A    between atoms: _317  and  _318
REMARK  135  A    between atoms: _321  and  _323
REMARK  136  A    between atoms: _323  and  _324
REMARK  137  A    between atoms: _323  and  _326
REMARK  138  A    between atoms: _326  and  _327
REMARK  139  A    between atoms: _327  and  _328
REMARK  140  A    between atoms: _331  and  _332
REMARK  141  A    between atoms: _337  and  _339
REMARK  142  A    between atoms: _339  and  _340
REMARK  143  A    between atoms: _339  and  _342
REMARK  144  A    between atoms: _342  and  _343
REMARK  145  A    between atoms: _349  and  _351
REMARK  146  A    between atoms: _351  and  _352
REMARK  147  A    between atoms: _354  and  _356
REMARK  148  A    between atoms: _356  and  _357
REMARK  149  A    between atoms: _356  and  _359
REMARK  150  A    between atoms: _361  and  _363
REMARK  151  A    between atoms: _363  and  _364
REMARK  152  A    between atoms: _363  and  _366
REMARK  153  A    between atoms: _366  and  _367
REMARK  154  A    between atoms: _370  and  _372
REMARK  155  A    between atoms: _372  and  _373
REMARK  156  A    between atoms: _372  and  _375
REMARK  157  A    between atoms: _375  and  _376
REMARK  158  A    between atoms: _379  and  _381
REMARK  159  A    between atoms: _381  and  _382
REMARK  160  A    between atoms: _381  and  _384
REMARK  161  A    between atoms: _384  and  _385
REMARK  162  A    between atoms: _388  and  _390
REMARK  163  A    between atoms: _390  and  _391
REMARK  164  A    between atoms: _390  and  _393
REMARK  165  A    between atoms: _393  and  _394
REMARK  166  A    between atoms: _399  and  _400
REMARK  167  A    between atoms: _402  and  _404
REMARK  168  A    between atoms: _404  and  _405
REMARK  169  A    between atoms: _404  and  _407
REMARK  170  A    between atoms: _407  and  _408
REMARK  171  A    between atoms: _408  and  _409
REMARK  172  A    between atoms: _409  and  _410
REMARK  173  A    between atoms: _419  and  _421
REMARK  174  A    between atoms: _421  and  _422
REMARK  175  A    between atoms: _421  and  _424
REMARK  176  A    between atoms: _424  and  _425
REMARK  177  A    between atoms: _428  and  _430
REMARK  178  A    between atoms: _430  and  _431
REMARK  179  A    between atoms: _430  and  _433
REMARK  180  A    between atoms: _433  and  _434
REMARK  181  A    between atoms: _439  and  _441
REMARK  182  A    between atoms: _441  and  _442
REMARK  183  A    between atoms: _445  and  _447
REMARK  184  A    between atoms: _447  and  _448
REMARK  185  A    between atoms: _447  and  _450
REMARK  186  A    between atoms: _450  and  _451
REMARK  187  A    between atoms: _451  and  _452
REMARK  188  A    between atoms: _452  and  _453
REMARK  189  A    between atoms: _462  and  _464
REMARK  190  A    between atoms: _464  and  _465
REMARK  191  A    between atoms: _464  and  _467
REMARK  192  A    between atoms: _467  and  _468
REMARK  193  A    between atoms: _473  and  _475
REMARK  194  A    between atoms: _475  and  _476
REMARK  195  A    between atoms: _475  and  _478
REMARK  196  A    between atoms: _481  and  _483
REMARK  197  A    between atoms: _483  and  _484
REMARK  198  A    between atoms: _483  and  _486
REMARK  199  A    between atoms: _486  and  _487
REMARK  200  A    between atoms: _490  and  _492
REMARK  201  A    between atoms: _492  and  _493
REMARK  202  A    between atoms: _492  and  _495
REMARK  203  A    between atoms: _498  and  _500
REMARK  204  A    between atoms: _500  and  _501
REMARK  205  A    between atoms: _500  and  _503
REMARK  206  A    between atoms: _503  and  _504
REMARK  207  A    between atoms: _504  and  _505
REMARK  208  A    between atoms: _505  and  _506
REMARK  209  A    between atoms: _506  and  _507
REMARK  210  A    between atoms: _511  and  _513
REMARK  211  A    between atoms: _513  and  _514
REMARK  212  A    between atoms: _513  and  _516
REMARK  213  A    between atoms: _516  and  _517
REMARK  214  A    between atoms: _520  and  _522
REMARK  215  A    between atoms: _522  and  _523
REMARK  216  A    between atoms: _522  and  _525
REMARK  217  A    between atoms: _525  and  _526
REMARK  218  A    between atoms: _529  and  _531
REMARK  219  A    between atoms: _531  and  _532
REMARK  220  A    between atoms: _531  and  _534
REMARK  221  A    between atoms: _534  and  _535
REMARK  222  A    between atoms: _538  and  _540
REMARK  223  A    between atoms: _540  and  _541
REMARK  224  A    between atoms: _540  and  _543
REMARK  225  A    between atoms: _543  and  _544
REMARK  226  A    between atoms: _550  and  _552
REMARK  227  A    between atoms: _552  and  _553
REMARK  228  A    between atoms: _555  and  _557
REMARK  229  A    between atoms: _557  and  _558
REMARK  230  A    between atoms: _557  and  _560
REMARK  231  A    between atoms: _560  and  _561
REMARK  232  A    between atoms: _564  and  _566
REMARK  233  A    between atoms: _566  and  _567
REMARK  234  A    between atoms: _570  and  _572
REMARK  235  A    between atoms: _572  and  _573
REMARK  236  A    between atoms: _572  and  _575
REMARK  237  A    between atoms: _575  and  _576
REMARK  238  A    between atoms: _586  and  _588
REMARK  239  A    between atoms: _588  and  _589
REMARK  240  A    between atoms: _588  and  _591
REMARK  241  A    between atoms: _591  and  _592
REMARK  242  A    between atoms: _592  and  _593
REMARK  243  A    between atoms: _596  and  _598
REMARK  244  A    between atoms: _598  and  _599
REMARK  245  A    between atoms: _601  and  _603
REMARK  246  A    between atoms: _603  and  _604
REMARK  247  A    between atoms: _603  and  _606
REMARK  248  A    between atoms: _606  and  _607
REMARK  249  A    between atoms: _610  and  _612
REMARK  250  A    between atoms: _612  and  _613
REMARK  251  A    between atoms: _612  and  _615
REMARK  252  A    between atoms: _615  and  _616
REMARK  253  A    between atoms: _616  and  _617
REMARK                            x       y       z     vdW  Elec       q    Type
REMARK                         _______ _______ _______ _____ _____    ______ ____
ROOT
ATOM      1  O   HOH     1       9.076  38.450  40.950  0.00  0.00    +0.000 OA
ENDROOT
TORSDOF 0
REMARK  Name = ../refined-set-2016/1xkk/1xkk_pocket.pdb
REMARK  253 active torsions:
REMARK  status: ('A' for Active; 'I' for Inactive)
REMARK    1  A    between atoms: _1  and  _3
REMARK    2  A    between atoms: _3  and  _4
REMARK    3  A    between atoms: _3  and  _6
REMARK    4  A    between atoms: _9  and  _11
REMARK    5  A    between atoms: _11  and  _12
REMARK    6  A    between atoms: _11  and  _14
REMARK    7  A    between atoms: _14  and  _15
REMARK    8  A    between atoms: _18  and  _20
REMARK    9  A    between atoms: _20  and  _21
REMARK   10  A    between atoms: _23  and  _25
REMARK   11  A    between atoms: _25  and  _26
REMARK   12  A    between atoms: _25  and  _28
REMARK   13  A    between atoms: _28  and  _29
REMARK   14  A    between atoms: _31  and  _33
REMARK   15  A    between atoms: _33  and  _34
REMARK   16  A    between atoms: _36  and  _38
REMARK   17  A    between atoms: _38  and  _39
REMARK   18  A    between atoms: _38  and  _41
REMARK   19  A    between atoms: _41  and  _42
REMARK   20  A    between atoms: _48  and  _50
REMARK   21  A    between atoms: _50  and  _51
REMARK   22  A    between atoms: _50  and  _53
REMARK   23  A    between atoms: _53  and  _54
REMARK   24  A    between atoms: _57  and  _59
REMARK   25  A    between atoms: _59  and  _60
REMARK   26  A    between atoms: _59  and  _62
REMARK   27  A    between atoms: _65  and  _67
REMARK   28  A    between atoms: _67  and  _68
REMARK   29  A    between atoms: _67  and  _70
REMARK   30  A    between atoms: _70  and  _71
REMARK   31  A    between atoms: _76  and  _77
REMARK   32  A    between atoms: _79  and  _81
REMARK   33  A    between atoms: _81  and  _82
REMARK   34  A    between atoms: _81  and  _84
REMARK   35  A    between atoms: _84  and  _85
REMARK   36  A    between atoms: _85  and  _86
REMARK   37  A    between atoms: _86  and  _87
REMARK   38  A    between atoms: _87  and  _88
REMARK   39  A    between atoms: _92  and  _94
REMARK   40  A    between atoms: _94  and  _95
REMARK   41  A    between atoms: _98  and  _99
REMARK   42  A    between atoms: _104  and  _106
REMARK   43  A    between atoms: _106  and  _107
REMARK   44  A    between atoms: _106  and  _109
REMARK   45  A    between atoms: _112  and  _114
REMARK   46  A    between atoms: _114  and  _115
REMARK   47  A    between atoms: _118  and  _120
REMARK   48  A    between atoms: _120  and  _121
REMARK   49  A    between atoms: _120  and  _123
REMARK   50  A    between atoms: _123  and  _124
REMARK   51  A    between atoms: _127  and  _129
REMARK   52  A    between atoms: _129  and  _130
REMARK   53  A    between atoms: _129  and  _132
REMARK   54  A    between atoms: _132  and  _133
REMARK   55  A    between atoms: _133  and  _134
REMARK   56  A    between atoms: _134  and  _135
REMARK   57  A    between atoms: _135  and  _136
REMARK   58  A    between atoms: _140  and  _142
REMARK   59  A    between atoms: _142  and  _143
REMARK   60  A    between atoms: _142  and  _145
REMARK   61  A    between atoms: _145  and  _146
REMARK   62  A    between atoms: _146  and  _147
REMARK   63  A    between atoms: _150  and  _152
REMARK   64  A    between atoms: _152  and  _153
REMARK   65  A    between atoms: _152  and  _155
REMARK   66  A    between atoms: _155  and  _156
REMARK   67  A    between atoms: _159  and  _161
REMARK   68  A    between atoms: _161  and  _162
REMARK   69  A    between atoms: _161  and  _164
REMARK   70  A    between atoms: _164  and  _165
REMARK   71  A    between atoms: _165  and  _166
REMARK   72  A    between atoms: _169  and  _171
REMARK   73  A    between atoms: _171  and  _172
REMARK   74  A    between atoms: _175  and  _177
REMARK   75  A    between atoms: _177  and  _178
REMARK   76  A    between atoms: _177  and  _180
REMARK   77  A    between atoms: _183  and  _185
REMARK   78  A    between atoms: _185  and  _186
REMARK   79  A    between atoms: _185  and  _188
REMARK   80  A    between atoms: _188  and  _189
REMARK   81  A    between atoms: _189  and  _190
REMARK   82  A    between atoms: _192  and  _194
REMARK   83  A    between atoms: _194  and  _195
REMARK   84  A    between atoms: _198  and  _200
REMARK   85  A    between atoms: _200  and  _201
REMARK   86  A    between atoms: _200  and  _203
REMARK   87  A    between atoms: _206  and  _208
REMARK   88  A    between atoms: _208  and  _209
REMARK   89  A    between atoms: _208  and  _211
REMARK   90  A    between atoms: _214  and  _216
REMARK   91  A    between atoms: _216  and  _217
REMARK   92  A    between atoms: _216  and  _219
REMARK   93  A    between atoms: _221  and  _223
REMARK   94  A    between atoms: _223  and  _224
REMARK   95  A    between atoms: _223  and  _226
REMARK   96  A    between atoms: _226  and  _227
REMARK   97  A    between atoms: _227  and  _228
REMARK   98  A    between atoms: _228  and  _229
REMARK   99  A    between atoms: _238  and  _240
REMARK  100  A    between atoms: _240  and  _241
REMARK  101  A    between atoms: _240  and  _243
REMARK  102  A    between atoms: _243  and  _244
REMARK  103  A    between atoms: _247  and  _249
REMARK  104  A    between atoms: _249  and  _250
REMARK  105  A    between atoms: _249  and  _252
REMARK  106  A    between atoms: _252  and  _253
REMARK  107  A    between atoms: _256  and  _258
REMARK  108  A    between atoms: _258  and  _259
REMARK  109  A    between atoms: _261  and  _263
REMARK  110  A    between atoms: _263  and  _264
REMARK  111  A    between atoms: _263  and  _266
REMARK  112  A    between atoms: _266  and  _267
REMARK  113  A    between atoms: _267  and  _268
REMARK  114  A    between atoms: _273  and  _275
REMARK  115  A    between atoms: _275  and  _276
REMARK  116  A    between atoms: _275  and  _278
REMARK  117  A    between atoms: _278  and  _279
REMARK  118  A    between atoms: _282  and  _284
REMARK  119  A    between atoms: _284  and  _285
REMARK  120  A    between atoms: _284  and  _287
REMARK  121  A    between atoms: _287  and  _288
REMARK  122  A    between atoms: _291  and  _293
REMARK  123  A    between atoms: _293  and  _294
REMARK  124  A    between atoms: _293  and  _296
REMARK  125  A    between atoms: _296  and  _297
REMARK  126  A    between atoms: _300  and  _302
REMARK  127  A    between atoms: _302  and  _303
REMARK  128  A    between atoms: _302  and  _305
REMARK  129  A    between atoms: _305  and  _306
REMARK  130  A    between atoms: _306  and  _307
REMARK  131  A    between atoms: _312  and  _314
REMARK  132  A    between atoms: _314  and  _315
REMARK  133  A    between atoms: _314  and  _317
REMARK  134  A    between atoms: _317  and  _318
REMARK  135  A    between atoms: _321  and  _323
REMARK  136  A    between atoms: _323  and  _324
REMARK  137  A    between atoms: _323  and  _326
REMARK  138  A    between atoms: _326  and  _327
REMARK  139  A    between atoms: _327  and  _328
REMARK  140  A    between atoms: _331  and  _332
REMARK  141  A    between atoms: _337  and  _339
REMARK  142  A    between atoms: _339  and  _340
REMARK  143  A    between atoms: _339  and  _342
REMARK  144  A    between atoms: _342  and  _343
REMARK  145  A    between atoms: _349  and  _351
REMARK  146  A    between atoms: _351  and  _352
REMARK  147  A    between atoms: _354  and  _356
REMARK  148  A    between atoms: _356  and  _357
REMARK  149  A    between atoms: _356  and  _359
REMARK  150  A    between atoms: _361  and  _363
REMARK  151  A    between atoms: _363  and  _364
REMARK  152  A    between atoms: _363  and  _366
REMARK  153  A    between atoms: _366  and  _367
REMARK  154  A    between atoms: _370  and  _372
REMARK  155  A    between atoms: _372  and  _373
REMARK  156  A    between atoms: _372  and  _375
REMARK  157  A    between atoms: _375  and  _376
REMARK  158  A    between atoms: _379  and  _381
REMARK  159  A    between atoms: _381  and  _382
REMARK  160  A    between atoms: _381  and  _384
REMARK  161  A    between atoms: _384  and  _385
REMARK  162  A    between atoms: _388  and  _390
REMARK  163  A    between atoms: _390  and  _391
REMARK  164  A    between atoms: _390  and  _393
REMARK  165  A    between atoms: _393  and  _394
REMARK  166  A    between atoms: _399  and  _400
REMARK  167  A    between atoms: _402  and  _404
REMARK  168  A    between atoms: _404  and  _405
REMARK  169  A    between atoms: _404  and  _407
REMARK  170  A    between atoms: _407  and  _408
REMARK  171  A    between atoms: _408  and  _409
REMARK  172  A    between atoms: _409  and  _410
REMARK  173  A    between atoms: _419  and  _421
REMARK  174  A    between atoms: _421  and  _422
REMARK  175  A    between atoms: _421  and  _424
REMARK  176  A    between atoms: _424  and  _425
REMARK  177  A    between atoms: _428  and  _430
REMARK  178  A    between atoms: _430  and  _431
REMARK  179  A    between atoms: _430  and  _433
REMARK  180  A    between atoms: _433  and  _434
REMARK  181  A    between atoms: _439  and  _441
REMARK  182  A    between atoms: _441  and  _442
REMARK  183  A    between atoms: _445  and  _447
REMARK  184  A    between atoms: _447  and  _448
REMARK  185  A    between atoms: _447  and  _450
REMARK  186  A    between atoms: _450  and  _451
REMARK  187  A    between atoms: _451  and  _452
REMARK  188  A    between atoms: _452  and  _453
REMARK  189  A    between atoms: _462  and  _464
REMARK  190  A    between atoms: _464  and  _465
REMARK  191  A    between atoms: _464  and  _467
REMARK  192  A    between atoms: _467  and  _468
REMARK  193  A    between atoms: _473  and  _475
REMARK  194  A    between atoms: _475  and  _476
REMARK  195  A    between atoms: _475  and  _478
REMARK  196  A    between atoms: _481  and  _483
REMARK  197  A    between atoms: _483  and  _484
REMARK  198  A    between atoms: _483  and  _486
REMARK  199  A    between atoms: _486  and  _487
REMARK  200  A    between atoms: _490  and  _492
REMARK  201  A    between atoms: _492  and  _493
REMARK  202  A    between atoms: _492  and  _495
REMARK  203  A    between atoms: _498  and  _500
REMARK  204  A    between atoms: _500  and  _501
REMARK  205  A    between atoms: _500  and  _503
REMARK  206  A    between atoms: _503  and  _504
REMARK  207  A    between atoms: _504  and  _505
REMARK  208  A    between atoms: _505  and  _506
REMARK  209  A    between atoms: _506  and  _507
REMARK  210  A    between atoms: _511  and  _513
REMARK  211  A    between atoms: _513  and  _514
REMARK  212  A    between atoms: _513  and  _516
REMARK  213  A    between atoms: _516  and  _517
REMARK  214  A    between atoms: _520  and  _522
REMARK  215  A    between atoms: _522  and  _523
REMARK  216  A    between atoms: _522  and  _525
REMARK  217  A    between atoms: _525  and  _526
REMARK  218  A    between atoms: _529  and  _531
REMARK  219  A    between atoms: _531  and  _532
REMARK  220  A    between atoms: _531  and  _534
REMARK  221  A    between atoms: _534  and  _535
REMARK  222  A    between atoms: _538  and  _540
REMARK  223  A    between atoms: _540  and  _541
REMARK  224  A    between atoms: _540  and  _543
REMARK  225  A    between atoms: _543  and  _544
REMARK  226  A    between atoms: _550  and  _552
REMARK  227  A    between atoms: _552  and  _553
REMARK  228  A    between atoms: _555  and  _557
REMARK  229  A    between atoms: _557  and  _558
REMARK  230  A    between atoms: _557  and  _560
REMARK  231  A    between atoms: _560  and  _561
REMARK  232  A    between atoms: _564  and  _566
REMARK  233  A    between atoms: _566  and  _567
REMARK  234  A    between atoms: _570  and  _572
REMARK  235  A    between atoms: _572  and  _573
REMARK  236  A    between atoms: _572  and  _575
REMARK  237  A    between atoms: _575  and  _576
REMARK  238  A    between atoms: _586  and  _588
REMARK  239  A    between atoms: _588  and  _589
REMARK  240  A    between atoms: _588  and  _591
REMARK  241  A    between atoms: _591  and  _592
REMARK  242  A    between atoms: _592  and  _593
REMARK  243  A    between atoms: _596  and  _598
REMARK  244  A    between atoms: _598  and  _599
REMARK  245  A    between atoms: _601  and  _603
REMARK  246  A    between atoms: _603  and  _604
REMARK  247  A    between atoms: _603  and  _606
REMARK  248  A    between atoms: _606  and  _607
REMARK  249  A    between atoms: _610  and  _612
REMARK  250  A    between atoms: _612  and  _613
REMARK  251  A    between atoms: _612  and  _615
REMARK  252  A    between atoms: _615  and  _616
REMARK  253  A    between atoms: _616  and  _617
REMARK                            x       y       z     vdW  Elec       q    Type
REMARK                         _______ _______ _______ _____ _____    ______ ____
ROOT
ATOM      1  O   HOH     1      17.366  32.443  30.216  0.00  0.00    +0.000 OA
ENDROOT
TORSDOF 0
REMARK  Name = ../refined-set-2016/1xkk/1xkk_pocket.pdb
REMARK  253 active torsions:
REMARK  status: ('A' for Active; 'I' for Inactive)
REMARK    1  A    between atoms: _1  and  _3
REMARK    2  A    between atoms: _3  and  _4
REMARK    3  A    between atoms: _3  and  _6
REMARK    4  A    between atoms: _9  and  _11
REMARK    5  A    between atoms: _11  and  _12
REMARK    6  A    between atoms: _11  and  _14
REMARK    7  A    between atoms: _14  and  _15
REMARK    8  A    between atoms: _18  and  _20
REMARK    9  A    between atoms: _20  and  _21
REMARK   10  A    between atoms: _23  and  _25
REMARK   11  A    between atoms: _25  and  _26
REMARK   12  A    between atoms: _25  and  _28
REMARK   13  A    between atoms: _28  and  _29
REMARK   14  A    between atoms: _31  and  _33
REMARK   15  A    between atoms: _33  and  _34
REMARK   16  A    between atoms: _36  and  _38
REMARK   17  A    between atoms: _38  and  _39
REMARK   18  A    between atoms: _38  and  _41
REMARK   19  A    between atoms: _41  and  _42
REMARK   20  A    between atoms: _48  and  _50
REMARK   21  A    between atoms: _50  and  _51
REMARK   22  A    between atoms: _50  and  _53
REMARK   23  A    between atoms: _53  and  _54
REMARK   24  A    between atoms: _57  and  _59
REMARK   25  A    between atoms: _59  and  _60
REMARK   26  A    between atoms: _59  and  _62
REMARK   27  A    between atoms: _65  and  _67
REMARK   28  A    between atoms: _67  and  _68
REMARK   29  A    between atoms: _67  and  _70
REMARK   30  A    between atoms: _70  and  _71
REMARK   31  A    between atoms: _76  and  _77
REMARK   32  A    between atoms: _79  and  _81
REMARK   33  A    between atoms: _81  and  _82
REMARK   34  A    between atoms: _81  and  _84
REMARK   35  A    between atoms: _84  and  _85
REMARK   36  A    between atoms: _85  and  _86
REMARK   37  A    between atoms: _86  and  _87
REMARK   38  A    between atoms: _87  and  _88
REMARK   39  A    between atoms: _92  and  _94
REMARK   40  A    between atoms: _94  and  _95
REMARK   41  A    between atoms: _98  and  _99
REMARK   42  A    between atoms: _104  and  _106
REMARK   43  A    between atoms: _106  and  _107
REMARK   44  A    between atoms: _106  and  _109
REMARK   45  A    between atoms: _112  and  _114
REMARK   46  A    between atoms: _114  and  _115
REMARK   47  A    between atoms: _118  and  _120
REMARK   48  A    between atoms: _120  and  _121
REMARK   49  A    between atoms: _120  and  _123
REMARK   50  A    between atoms: _123  and  _124
REMARK   51  A    between atoms: _127  and  _129
REMARK   52  A    between atoms: _129  and  _130
REMARK   53  A    between atoms: _129  and  _132
REMARK   54  A    between atoms: _132  and  _133
REMARK   55  A    between atoms: _133  and  _134
REMARK   56  A    between atoms: _134  and  _135
REMARK   57  A    between atoms: _135  and  _136
REMARK   58  A    between atoms: _140  and  _142
REMARK   59  A    between atoms: _142  and  _143
REMARK   60  A    between atoms: _142  and  _145
REMARK   61  A    between atoms: _145  and  _146
REMARK   62  A    between atoms: _146  and  _147
REMARK   63  A    between atoms: _150  and  _152
REMARK   64  A    between atoms: _152  and  _153
REMARK   65  A    between atoms: _152  and  _155
REMARK   66  A    between atoms: _155  and  _156
REMARK   67  A    between atoms: _159  and  _161
REMARK   68  A    between atoms: _161  and  _162
REMARK   69  A    between atoms: _161  and  _164
REMARK   70  A    between atoms: _164  and  _165
REMARK   71  A    between atoms: _165  and  _166
REMARK   72  A    between atoms: _169  and  _171
REMARK   73  A    between atoms: _171  and  _172
REMARK   74  A    between atoms: _175  and  _177
REMARK   75  A    between atoms: _177  and  _178
REMARK   76  A    between atoms: _177  and  _180
REMARK   77  A    between atoms: _183  and  _185
REMARK   78  A    between atoms: _185  and  _186
REMARK   79  A    between atoms: _185  and  _188
REMARK   80  A    between atoms: _188  and  _189
REMARK   81  A    between atoms: _189  and  _190
REMARK   82  A    between atoms: _192  and  _194
REMARK   83  A    between atoms: _194  and  _195
REMARK   84  A    between atoms: _198  and  _200
REMARK   85  A    between atoms: _200  and  _201
REMARK   86  A    between atoms: _200  and  _203
REMARK   87  A    between atoms: _206  and  _208
REMARK   88  A    between atoms: _208  and  _209
REMARK   89  A    between atoms: _208  and  _211
REMARK   90  A    between atoms: _214  and  _216
REMARK   91  A    between atoms: _216  and  _217
REMARK   92  A    between atoms: _216  and  _219
REMARK   93  A    between atoms: _221  and  _223
REMARK   94  A    between atoms: _223  and  _224
REMARK   95  A    between atoms: _223  and  _226
REMARK   96  A    between atoms: _226  and  _227
REMARK   97  A    between atoms: _227  and  _228
REMARK   98  A    between atoms: _228  and  _229
REMARK   99  A    between atoms: _238  and  _240
REMARK  100  A    between atoms: _240  and  _241
REMARK  101  A    between atoms: _240  and  _243
REMARK  102  A    between atoms: _243  and  _244
REMARK  103  A    between atoms: _247  and  _249
REMARK  104  A    between atoms: _249  and  _250
REMARK  105  A    between atoms: _249  and  _252
REMARK  106  A    between atoms: _252  and  _253
REMARK  107  A    between atoms: _256  and  _258
REMARK  108  A    between atoms: _258  and  _259
REMARK  109  A    between atoms: _261  and  _263
REMARK  110  A    between atoms: _263  and  _264
REMARK  111  A    between atoms: _263  and  _266
REMARK  112  A    between atoms: _266  and  _267
REMARK  113  A    between atoms: _267  and  _268
REMARK  114  A    between atoms: _273  and  _275
REMARK  115  A    between atoms: _275  and  _276
REMARK  116  A    between atoms: _275  and  _278
REMARK  117  A    between atoms: _278  and  _279
REMARK  118  A    between atoms: _282  and  _284
REMARK  119  A    between atoms: _284  and  _285
REMARK  120  A    between atoms: _284  and  _287
REMARK  121  A    between atoms: _287  and  _288
REMARK  122  A    between atoms: _291  and  _293
REMARK  123  A    between atoms: _293  and  _294
REMARK  124  A    between atoms: _293  and  _296
REMARK  125  A    between atoms: _296  and  _297
REMARK  126  A    between atoms: _300  and  _302
REMARK  127  A    between atoms: _302  and  _303
REMARK  128  A    between atoms: _302  and  _305
REMARK  129  A    between atoms: _305  and  _306
REMARK  130  A    between atoms: _306  and  _307
REMARK  131  A    between atoms: _312  and  _314
REMARK  132  A    between atoms: _314  and  _315
REMARK  133  A    between atoms: _314  and  _317
REMARK  134  A    between atoms: _317  and  _318
REMARK  135  A    between atoms: _321  and  _323
REMARK  136  A    between atoms: _323  and  _324
REMARK  137  A    between atoms: _323  and  _326
REMARK  138  A    between atoms: _326  and  _327
REMARK  139  A    between atoms: _327  and  _328
REMARK  140  A    between atoms: _331  and  _332
REMARK  141  A    between atoms: _337  and  _339
REMARK  142  A    between atoms: _339  and  _340
REMARK  143  A    between atoms: _339  and  _342
REMARK  144  A    between atoms: _342  and  _343
REMARK  145  A    between atoms: _349  and  _351
REMARK  146  A    between atoms: _351  and  _352
REMARK  147  A    between atoms: _354  and  _356
REMARK  148  A    between atoms: _356  and  _357
REMARK  149  A    between atoms: _356  and  _359
REMARK  150  A    between atoms: _361  and  _363
REMARK  151  A    between atoms: _363  and  _364
REMARK  152  A    between atoms: _363  and  _366
REMARK  153  A    between atoms: _366  and  _367
REMARK  154  A    between atoms: _370  and  _372
REMARK  155  A    between atoms: _372  and  _373
REMARK  156  A    between atoms: _372  and  _375
REMARK  157  A    between atoms: _375  and  _376
REMARK  158  A    between atoms: _379  and  _381
REMARK  159  A    between atoms: _381  and  _382
REMARK  160  A    between atoms: _381  and  _384
REMARK  161  A    between atoms: _384  and  _385
REMARK  162  A    between atoms: _388  and  _390
REMARK  163  A    between atoms: _390  and  _391
REMARK  164  A    between atoms: _390  and  _393
REMARK  165  A    between atoms: _393  and  _394
REMARK  166  A    between atoms: _399  and  _400
REMARK  167  A    between atoms: _402  and  _404
REMARK  168  A    between atoms: _404  and  _405
REMARK  169  A    between atoms: _404  and  _407
REMARK  170  A    between atoms: _407  and  _408
REMARK  171  A    between atoms: _408  and  _409
REMARK  172  A    between atoms: _409  and  _410
REMARK  173  A    between atoms: _419  and  _421
REMARK  174  A    between atoms: _421  and  _422
REMARK  175  A    between atoms: _421  and  _424
REMARK  176  A    between atoms: _424  and  _425
REMARK  177  A    between atoms: _428  and  _430
REMARK  178  A    between atoms: _430  and  _431
REMARK  179  A    between atoms: _430  and  _433
REMARK  180  A    between atoms: _433  and  _434
REMARK  181  A    between atoms: _439  and  _441
REMARK  182  A    between atoms: _441  and  _442
REMARK  183  A    between atoms: _445  and  _447
REMARK  184  A    between atoms: _447  and  _448
REMARK  185  A    between atoms: _447  and  _450
REMARK  186  A    between atoms: _450  and  _451
REMARK  187  A    between atoms: _451  and  _452
REMARK  188  A    between atoms: _452  and  _453
REMARK  189  A    between atoms: _462  and  _464
REMARK  190  A    between atoms: _464  and  _465
REMARK  191  A    between atoms: _464  and  _467
REMARK  192  A    between atoms: _467  and  _468
REMARK  193  A    between atoms: _473  and  _475
REMARK  194  A    between atoms: _475  and  _476
REMARK  195  A    between atoms: _475  and  _478
REMARK  196  A    between atoms: _481  and  _483
REMARK  197  A    between atoms: _483  and  _484
REMARK  198  A    between atoms: _483  and  _486
REMARK  199  A    between atoms: _486  and  _487
REMARK  200  A    between atoms: _490  and  _492
REMARK  201  A    between atoms: _492  and  _493
REMARK  202  A    between atoms: _492  and  _495
REMARK  203  A    between atoms: _498  and  _500
REMARK  204  A    between atoms: _500  and  _501
REMARK  205  A    between atoms: _500  and  _503
REMARK  206  A    between atoms: _503  and  _504
REMARK  207  A    between atoms: _504  and  _505
REMARK  208  A    between atoms: _505  and  _506
REMARK  209  A    between atoms: _506  and  _507
REMARK  210  A    between atoms: _511  and  _513
REMARK  211  A    between atoms: _513  and  _514
REMARK  212  A    between atoms: _513  and  _516
REMARK  213  A    between atoms: _516  and  _517
REMARK  214  A    between atoms: _520  and  _522
REMARK  215  A    between atoms: _522  and  _523
REMARK  216  A    between atoms: _522  and  _525
REMARK  217  A    between atoms: _525  and  _526
REMARK  218  A    between atoms: _529  and  _531
REMARK  219  A    between atoms: _531  and  _532
REMARK  220  A    between atoms: _531  and  _534
REMARK  221  A    between atoms: _534  and  _535
REMARK  222  A    between atoms: _538  and  _540
REMARK  223  A    between atoms: _540  and  _541
REMARK  224  A    between atoms: _540  and  _543
REMARK  225  A    between atoms: _543  and  _544
REMARK  226  A    between atoms: _550  and  _552
REMARK  227  A    between atoms: _552  and  _553
REMARK  228  A    between atoms: _555  and  _557
REMARK  229  A    between atoms: _557  and  _558
REMARK  230  A    between atoms: _557  and  _560
REMARK  231  A    between atoms: _560  and  _561
REMARK  232  A    between atoms: _564  and  _566
REMARK  233  A    between atoms: _566  and  _567
REMARK  234  A    between atoms: _570  and  _572
REMARK  235  A    between atoms: _572  and  _573
REMARK  236  A    between atoms: _572  and  _575
REMARK  237  A    between atoms: _575  and  _576
REMARK  238  A    between atoms: _586  and  _588
REMARK  239  A    between atoms: _588  and  _589
REMARK  240  A    between atoms: _588  and  _591
REMARK  241  A    between atoms: _591  and  _592
REMARK  242  A    between atoms: _592  and  _593
REMARK  243  A    between atoms: _596  and  _598
REMARK  244  A    between atoms: _598  and  _599
REMARK  245  A    between atoms: _601  and  _603
REMARK  246  A    between atoms: _603  and  _604
REMARK  247  A    between atoms: _603  and  _606
REMARK  248  A    between atoms: _606  and  _607
REMARK  249  A    between atoms: _610  and  _612
REMARK  250  A    between atoms: _612  and  _613
REMARK  251  A    between atoms: _612  and  _615
REMARK  252  A    between atoms: _615  and  _616
REMARK  253  A    between atoms: _616  and  _617
REMARK                            x       y       z     vdW  Elec       q    Type
REMARK                         _______ _______ _______ _____ _____    ______ ____
ROOT
ATOM      1  O   HOH     1      27.520  39.807  28.762  0.00  0.00    +0.000 OA
ENDROOT
TORSDOF 0
REMARK  Name = ../refined-set-2016/1xkk/1xkk_pocket.pdb
REMARK  253 active torsions:
REMARK  status: ('A' for Active; 'I' for Inactive)
REMARK    1  A    between atoms: _1  and  _3
REMARK    2  A    between atoms: _3  and  _4
REMARK    3  A    between atoms: _3  and  _6
REMARK    4  A    between atoms: _9  and  _11
REMARK    5  A    between atoms: _11  and  _12
REMARK    6  A    between atoms: _11  and  _14
REMARK    7  A    between atoms: _14  and  _15
REMARK    8  A    between atoms: _18  and  _20
REMARK    9  A    between atoms: _20  and  _21
REMARK   10  A    between atoms: _23  and  _25
REMARK   11  A    between atoms: _25  and  _26
REMARK   12  A    between atoms: _25  and  _28
REMARK   13  A    between atoms: _28  and  _29
REMARK   14  A    between atoms: _31  and  _33
REMARK   15  A    between atoms: _33  and  _34
REMARK   16  A    between atoms: _36  and  _38
REMARK   17  A    between atoms: _38  and  _39
REMARK   18  A    between atoms: _38  and  _41
REMARK   19  A    between atoms: _41  and  _42
REMARK   20  A    between atoms: _48  and  _50
REMARK   21  A    between atoms: _50  and  _51
REMARK   22  A    between atoms: _50  and  _53
REMARK   23  A    between atoms: _53  and  _54
REMARK   24  A    between atoms: _57  and  _59
REMARK   25  A    between atoms: _59  and  _60
REMARK   26  A    between atoms: _59  and  _62
REMARK   27  A    between atoms: _65  and  _67
REMARK   28  A    between atoms: _67  and  _68
REMARK   29  A    between atoms: _67  and  _70
REMARK   30  A    between atoms: _70  and  _71
REMARK   31  A    between atoms: _76  and  _77
REMARK   32  A    between atoms: _79  and  _81
REMARK   33  A    between atoms: _81  and  _82
REMARK   34  A    between atoms: _81  and  _84
REMARK   35  A    between atoms: _84  and  _85
REMARK   36  A    between atoms: _85  and  _86
REMARK   37  A    between atoms: _86  and  _87
REMARK   38  A    between atoms: _87  and  _88
REMARK   39  A    between atoms: _92  and  _94
REMARK   40  A    between atoms: _94  and  _95
REMARK   41  A    between atoms: _98  and  _99
REMARK   42  A    between atoms: _104  and  _106
REMARK   43  A    between atoms: _106  and  _107
REMARK   44  A    between atoms: _106  and  _109
REMARK   45  A    between atoms: _112  and  _114
REMARK   46  A    between atoms: _114  and  _115
REMARK   47  A    between atoms: _118  and  _120
REMARK   48  A    between atoms: _120  and  _121
REMARK   49  A    between atoms: _120  and  _123
REMARK   50  A    between atoms: _123  and  _124
REMARK   51  A    between atoms: _127  and  _129
REMARK   52  A    between atoms: _129  and  _130
REMARK   53  A    between atoms: _129  and  _132
REMARK   54  A    between atoms: _132  and  _133
REMARK   55  A    between atoms: _133  and  _134
REMARK   56  A    between atoms: _134  and  _135
REMARK   57  A    between atoms: _135  and  _136
REMARK   58  A    between atoms: _140  and  _142
REMARK   59  A    between atoms: _142  and  _143
REMARK   60  A    between atoms: _142  and  _145
REMARK   61  A    between atoms: _145  and  _146
REMARK   62  A    between atoms: _146  and  _147
REMARK   63  A    between atoms: _150  and  _152
REMARK   64  A    between atoms: _152  and  _153
REMARK   65  A    between atoms: _152  and  _155
REMARK   66  A    between atoms: _155  and  _156
REMARK   67  A    between atoms: _159  and  _161
REMARK   68  A    between atoms: _161  and  _162
REMARK   69  A    between atoms: _161  and  _164
REMARK   70  A    between atoms: _164  and  _165
REMARK   71  A    between atoms: _165  and  _166
REMARK   72  A    between atoms: _169  and  _171
REMARK   73  A    between atoms: _171  and  _172
REMARK   74  A    between atoms: _175  and  _177
REMARK   75  A    between atoms: _177  and  _178
REMARK   76  A    between atoms: _177  and  _180
REMARK   77  A    between atoms: _183  and  _185
REMARK   78  A    between atoms: _185  and  _186
REMARK   79  A    between atoms: _185  and  _188
REMARK   80  A    between atoms: _188  and  _189
REMARK   81  A    between atoms: _189  and  _190
REMARK   82  A    between atoms: _192  and  _194
REMARK   83  A    between atoms: _194  and  _195
REMARK   84  A    between atoms: _198  and  _200
REMARK   85  A    between atoms: _200  and  _201
REMARK   86  A    between atoms: _200  and  _203
REMARK   87  A    between atoms: _206  and  _208
REMARK   88  A    between atoms: _208  and  _209
REMARK   89  A    between atoms: _208  and  _211
REMARK   90  A    between atoms: _214  and  _216
REMARK   91  A    between atoms: _216  and  _217
REMARK   92  A    between atoms: _216  and  _219
REMARK   93  A    between atoms: _221  and  _223
REMARK   94  A    between atoms: _223  and  _224
REMARK   95  A    between atoms: _223  and  _226
REMARK   96  A    between atoms: _226  and  _227
REMARK   97  A    between atoms: _227  and  _228
REMARK   98  A    between atoms: _228  and  _229
REMARK   99  A    between atoms: _238  and  _240
REMARK  100  A    between atoms: _240  and  _241
REMARK  101  A    between atoms: _240  and  _243
REMARK  102  A    between atoms: _243  and  _244
REMARK  103  A    between atoms: _247  and  _249
REMARK  104  A    between atoms: _249  and  _250
REMARK  105  A    between atoms: _249  and  _252
REMARK  106  A    between atoms: _252  and  _253
REMARK  107  A    between atoms: _256  and  _258
REMARK  108  A    between atoms: _258  and  _259
REMARK  109  A    between atoms: _261  and  _263
REMARK  110  A    between atoms: _263  and  _264
REMARK  111  A    between atoms: _263  and  _266
REMARK  112  A    between atoms: _266  and  _267
REMARK  113  A    between atoms: _267  and  _268
REMARK  114  A    between atoms: _273  and  _275
REMARK  115  A    between atoms: _275  and  _276
REMARK  116  A    between atoms: _275  and  _278
REMARK  117  A    between atoms: _278  and  _279
REMARK  118  A    between atoms: _282  and  _284
REMARK  119  A    between atoms: _284  and  _285
REMARK  120  A    between atoms: _284  and  _287
REMARK  121  A    between atoms: _287  and  _288
REMARK  122  A    between atoms: _291  and  _293
REMARK  123  A    between atoms: _293  and  _294
REMARK  124  A    between atoms: _293  and  _296
REMARK  125  A    between atoms: _296  and  _297
REMARK  126  A    between atoms: _300  and  _302
REMARK  127  A    between atoms: _302  and  _303
REMARK  128  A    between atoms: _302  and  _305
REMARK  129  A    between atoms: _305  and  _306
REMARK  130  A    between atoms: _306  and  _307
REMARK  131  A    between atoms: _312  and  _314
REMARK  132  A    between atoms: _314  and  _315
REMARK  133  A    between atoms: _314  and  _317
REMARK  134  A    between atoms: _317  and  _318
REMARK  135  A    between atoms: _321  and  _323
REMARK  136  A    between atoms: _323  and  _324
REMARK  137  A    between atoms: _323  and  _326
REMARK  138  A    between atoms: _326  and  _327
REMARK  139  A    between atoms: _327  and  _328
REMARK  140  A    between atoms: _331  and  _332
REMARK  141  A    between atoms: _337  and  _339
REMARK  142  A    between atoms: _339  and  _340
REMARK  143  A    between atoms: _339  and  _342
REMARK  144  A    between atoms: _342  and  _343
REMARK  145  A    between atoms: _349  and  _351
REMARK  146  A    between atoms: _351  and  _352
REMARK  147  A    between atoms: _354  and  _356
REMARK  148  A    between atoms: _356  and  _357
REMARK  149  A    between atoms: _356  and  _359
REMARK  150  A    between atoms: _361  and  _363
REMARK  151  A    between atoms: _363  and  _364
REMARK  152  A    between atoms: _363  and  _366
REMARK  153  A    between atoms: _366  and  _367
REMARK  154  A    between atoms: _370  and  _372
REMARK  155  A    between atoms: _372  and  _373
REMARK  156  A    between atoms: _372  and  _375
REMARK  157  A    between atoms: _375  and  _376
REMARK  158  A    between atoms: _379  and  _381
REMARK  159  A    between atoms: _381  and  _382
REMARK  160  A    between atoms: _381  and  _384
REMARK  161  A    between atoms: _384  and  _385
REMARK  162  A    between atoms: _388  and  _390
REMARK  163  A    between atoms: _390  and  _391
REMARK  164  A    between atoms: _390  and  _393
REMARK  165  A    between atoms: _393  and  _394
REMARK  166  A    between atoms: _399  and  _400
REMARK  167  A    between atoms: _402  and  _404
REMARK  168  A    between atoms: _404  and  _405
REMARK  169  A    between atoms: _404  and  _407
REMARK  170  A    between atoms: _407  and  _408
REMARK  171  A    between atoms: _408  and  _409
REMARK  172  A    between atoms: _409  and  _410
REMARK  173  A    between atoms: _419  and  _421
REMARK  174  A    between atoms: _421  and  _422
REMARK  175  A    between atoms: _421  and  _424
REMARK  176  A    between atoms: _424  and  _425
REMARK  177  A    between atoms: _428  and  _430
REMARK  178  A    between atoms: _430  and  _431
REMARK  179  A    between atoms: _430  and  _433
REMARK  180  A    between atoms: _433  and  _434
REMARK  181  A    between atoms: _439  and  _441
REMARK  182  A    between atoms: _441  and  _442
REMARK  183  A    between atoms: _445  and  _447
REMARK  184  A    between atoms: _447  and  _448
REMARK  185  A    between atoms: _447  and  _450
REMARK  186  A    between atoms: _450  and  _451
REMARK  187  A    between atoms: _451  and  _452
REMARK  188  A    between atoms: _452  and  _453
REMARK  189  A    between atoms: _462  and  _464
REMARK  190  A    between atoms: _464  and  _465
REMARK  191  A    between atoms: _464  and  _467
REMARK  192  A    between atoms: _467  and  _468
REMARK  193  A    between atoms: _473  and  _475
REMARK  194  A    between atoms: _475  and  _476
REMARK  195  A    between atoms: _475  and  _478
REMARK  196  A    between atoms: _481  and  _483
REMARK  197  A    between atoms: _483  and  _484
REMARK  198  A    between atoms: _483  and  _486
REMARK  199  A    between atoms: _486  and  _487
REMARK  200  A    between atoms: _490  and  _492
REMARK  201  A    between atoms: _492  and  _493
REMARK  202  A    between atoms: _492  and  _495
REMARK  203  A    between atoms: _498  and  _500
REMARK  204  A    between atoms: _500  and  _501
REMARK  205  A    between atoms: _500  and  _503
REMARK  206  A    between atoms: _503  and  _504
REMARK  207  A    between atoms: _504  and  _505
REMARK  208  A    between atoms: _505  and  _506
REMARK  209  A    between atoms: _506  and  _507
REMARK  210  A    between atoms: _511  and  _513
REMARK  211  A    between atoms: _513  and  _514
REMARK  212  A    between atoms: _513  and  _516
REMARK  213  A    between atoms: _516  and  _517
REMARK  214  A    between atoms: _520  and  _522
REMARK  215  A    between atoms: _522  and  _523
REMARK  216  A    between atoms: _522  and  _525
REMARK  217  A    between atoms: _525  and  _526
REMARK  218  A    between atoms: _529  and  _531
REMARK  219  A    between atoms: _531  and  _532
REMARK  220  A    between atoms: _531  and  _534
REMARK  221  A    between atoms: _534  and  _535
REMARK  222  A    between atoms: _538  and  _540
REMARK  223  A    between atoms: _540  and  _541
REMARK  224  A    between atoms: _540  and  _543
REMARK  225  A    between atoms: _543  and  _544
REMARK  226  A    between atoms: _550  and  _552
REMARK  227  A    between atoms: _552  and  _553
REMARK  228  A    between atoms: _555  and  _557
REMARK  229  A    between atoms: _557  and  _558
REMARK  230  A    between atoms: _557  and  _560
REMARK  231  A    between atoms: _560  and  _561
REMARK  232  A    between atoms: _564  and  _566
REMARK  233  A    between atoms: _566  and  _567
REMARK  234  A    between atoms: _570  and  _572
REMARK  235  A    between atoms: _572  and  _573
REMARK  236  A    between atoms: _572  and  _575
REMARK  237  A    between atoms: _575  and  _576
REMARK  238  A    between atoms: _586  and  _588
REMARK  239  A    between atoms: _588  and  _589
REMARK  240  A    between atoms: _588  and  _591
REMARK  241  A    between atoms: _591  and  _592
REMARK  242  A    between atoms: _592  and  _593
REMARK  243  A    between atoms: _596  and  _598
REMARK  244  A    between atoms: _598  and  _599
REMARK  245  A    between atoms: _601  and  _603
REMARK  246  A    between atoms: _603  and  _604
REMARK  247  A    between atoms: _603  and  _606
REMARK  248  A    between atoms: _606  and  _607
REMARK  249  A    between atoms: _610  and  _612
REMARK  250  A    between atoms: _612  and  _613
REMARK  251  A    between atoms: _612  and  _615
REMARK  252  A    between atoms: _615  and  _616
REMARK  253  A    between atoms: _616  and  _617
REMARK                            x       y       z     vdW  Elec       q    Type
REMARK                         _______ _______ _______ _____ _____    ______ ____
ROOT
ATOM      1  O   HOH     1      28.383  37.881  30.573  0.00  0.00    +0.000 OA
ENDROOT
TORSDOF 0
REMARK  Name = ../refined-set-2016/1xkk/1xkk_pocket.pdb
REMARK  253 active torsions:
REMARK  status: ('A' for Active; 'I' for Inactive)
REMARK    1  A    between atoms: _1  and  _3
REMARK    2  A    between atoms: _3  and  _4
REMARK    3  A    between atoms: _3  and  _6
REMARK    4  A    between atoms: _9  and  _11
REMARK    5  A    between atoms: _11  and  _12
REMARK    6  A    between atoms: _11  and  _14
REMARK    7  A    between atoms: _14  and  _15
REMARK    8  A    between atoms: _18  and  _20
REMARK    9  A    between atoms: _20  and  _21
REMARK   10  A    between atoms: _23  and  _25
REMARK   11  A    between atoms: _25  and  _26
REMARK   12  A    between atoms: _25  and  _28
REMARK   13  A    between atoms: _28  and  _29
REMARK   14  A    between atoms: _31  and  _33
REMARK   15  A    between atoms: _33  and  _34
REMARK   16  A    between atoms: _36  and  _38
REMARK   17  A    between atoms: _38  and  _39
REMARK   18  A    between atoms: _38  and  _41
REMARK   19  A    between atoms: _41  and  _42
REMARK   20  A    between atoms: _48  and  _50
REMARK   21  A    between atoms: _50  and  _51
REMARK   22  A    between atoms: _50  and  _53
REMARK   23  A    between atoms: _53  and  _54
REMARK   24  A    between atoms: _57  and  _59
REMARK   25  A    between atoms: _59  and  _60
REMARK   26  A    between atoms: _59  and  _62
REMARK   27  A    between atoms: _65  and  _67
REMARK   28  A    between atoms: _67  and  _68
REMARK   29  A    between atoms: _67  and  _70
REMARK   30  A    between atoms: _70  and  _71
REMARK   31  A    between atoms: _76  and  _77
REMARK   32  A    between atoms: _79  and  _81
REMARK   33  A    between atoms: _81  and  _82
REMARK   34  A    between atoms: _81  and  _84
REMARK   35  A    between atoms: _84  and  _85
REMARK   36  A    between atoms: _85  and  _86
REMARK   37  A    between atoms: _86  and  _87
REMARK   38  A    between atoms: _87  and  _88
REMARK   39  A    between atoms: _92  and  _94
REMARK   40  A    between atoms: _94  and  _95
REMARK   41  A    between atoms: _98  and  _99
REMARK   42  A    between atoms: _104  and  _106
REMARK   43  A    between atoms: _106  and  _107
REMARK   44  A    between atoms: _106  and  _109
REMARK   45  A    between atoms: _112  and  _114
REMARK   46  A    between atoms: _114  and  _115
REMARK   47  A    between atoms: _118  and  _120
REMARK   48  A    between atoms: _120  and  _121
REMARK   49  A    between atoms: _120  and  _123
REMARK   50  A    between atoms: _123  and  _124
REMARK   51  A    between atoms: _127  and  _129
REMARK   52  A    between atoms: _129  and  _130
REMARK   53  A    between atoms: _129  and  _132
REMARK   54  A    between atoms: _132  and  _133
REMARK   55  A    between atoms: _133  and  _134
REMARK   56  A    between atoms: _134  and  _135
REMARK   57  A    between atoms: _135  and  _136
REMARK   58  A    between atoms: _140  and  _142
REMARK   59  A    between atoms: _142  and  _143
REMARK   60  A    between atoms: _142  and  _145
REMARK   61  A    between atoms: _145  and  _146
REMARK   62  A    between atoms: _146  and  _147
REMARK   63  A    between atoms: _150  and  _152
REMARK   64  A    between atoms: _152  and  _153
REMARK   65  A    between atoms: _152  and  _155
REMARK   66  A    between atoms: _155  and  _156
REMARK   67  A    between atoms: _159  and  _161
REMARK   68  A    between atoms: _161  and  _162
REMARK   69  A    between atoms: _161  and  _164
REMARK   70  A    between atoms: _164  and  _165
REMARK   71  A    between atoms: _165  and  _166
REMARK   72  A    between atoms: _169  and  _171
REMARK   73  A    between atoms: _171  and  _172
REMARK   74  A    between atoms: _175  and  _177
REMARK   75  A    between atoms: _177  and  _178
REMARK   76  A    between atoms: _177  and  _180
REMARK   77  A    between atoms: _183  and  _185
REMARK   78  A    between atoms: _185  and  _186
REMARK   79  A    between atoms: _185  and  _188
REMARK   80  A    between atoms: _188  and  _189
REMARK   81  A    between atoms: _189  and  _190
REMARK   82  A    between atoms: _192  and  _194
REMARK   83  A    between atoms: _194  and  _195
REMARK   84  A    between atoms: _198  and  _200
REMARK   85  A    between atoms: _200  and  _201
REMARK   86  A    between atoms: _200  and  _203
REMARK   87  A    between atoms: _206  and  _208
REMARK   88  A    between atoms: _208  and  _209
REMARK   89  A    between atoms: _208  and  _211
REMARK   90  A    between atoms: _214  and  _216
REMARK   91  A    between atoms: _216  and  _217
REMARK   92  A    between atoms: _216  and  _219
REMARK   93  A    between atoms: _221  and  _223
REMARK   94  A    between atoms: _223  and  _224
REMARK   95  A    between atoms: _223  and  _226
REMARK   96  A    between atoms: _226  and  _227
REMARK   97  A    between atoms: _227  and  _228
REMARK   98  A    between atoms: _228  and  _229
REMARK   99  A    between atoms: _238  and  _240
REMARK  100  A    between atoms: _240  and  _241
REMARK  101  A    between atoms: _240  and  _243
REMARK  102  A    between atoms: _243  and  _244
REMARK  103  A    between atoms: _247  and  _249
REMARK  104  A    between atoms: _249  and  _250
REMARK  105  A    between atoms: _249  and  _252
REMARK  106  A    between atoms: _252  and  _253
REMARK  107  A    between atoms: _256  and  _258
REMARK  108  A    between atoms: _258  and  _259
REMARK  109  A    between atoms: _261  and  _263
REMARK  110  A    between atoms: _263  and  _264
REMARK  111  A    between atoms: _263  and  _266
REMARK  112  A    between atoms: _266  and  _267
REMARK  113  A    between atoms: _267  and  _268
REMARK  114  A    between atoms: _273  and  _275
REMARK  115  A    between atoms: _275  and  _276
REMARK  116  A    between atoms: _275  and  _278
REMARK  117  A    between atoms: _278  and  _279
REMARK  118  A    between atoms: _282  and  _284
REMARK  119  A    between atoms: _284  and  _285
REMARK  120  A    between atoms: _284  and  _287
REMARK  121  A    between atoms: _287  and  _288
REMARK  122  A    between atoms: _291  and  _293
REMARK  123  A    between atoms: _293  and  _294
REMARK  124  A    between atoms: _293  and  _296
REMARK  125  A    between atoms: _296  and  _297
REMARK  126  A    between atoms: _300  and  _302
REMARK  127  A    between atoms: _302  and  _303
REMARK  128  A    between atoms: _302  and  _305
REMARK  129  A    between atoms: _305  and  _306
REMARK  130  A    between atoms: _306  and  _307
REMARK  131  A    between atoms: _312  and  _314
REMARK  132  A    between atoms: _314  and  _315
REMARK  133  A    between atoms: _314  and  _317
REMARK  134  A    between atoms: _317  and  _318
REMARK  135  A    between atoms: _321  and  _323
REMARK  136  A    between atoms: _323  and  _324
REMARK  137  A    between atoms: _323  and  _326
REMARK  138  A    between atoms: _326  and  _327
REMARK  139  A    between atoms: _327  and  _328
REMARK  140  A    between atoms: _331  and  _332
REMARK  141  A    between atoms: _337  and  _339
REMARK  142  A    between atoms: _339  and  _340
REMARK  143  A    between atoms: _339  and  _342
REMARK  144  A    between atoms: _342  and  _343
REMARK  145  A    between atoms: _349  and  _351
REMARK  146  A    between atoms: _351  and  _352
REMARK  147  A    between atoms: _354  and  _356
REMARK  148  A    between atoms: _356  and  _357
REMARK  149  A    between atoms: _356  and  _359
REMARK  150  A    between atoms: _361  and  _363
REMARK  151  A    between atoms: _363  and  _364
REMARK  152  A    between atoms: _363  and  _366
REMARK  153  A    between atoms: _366  and  _367
REMARK  154  A    between atoms: _370  and  _372
REMARK  155  A    between atoms: _372  and  _373
REMARK  156  A    between atoms: _372  and  _375
REMARK  157  A    between atoms: _375  and  _376
REMARK  158  A    between atoms: _379  and  _381
REMARK  159  A    between atoms: _381  and  _382
REMARK  160  A    between atoms: _381  and  _384
REMARK  161  A    between atoms: _384  and  _385
REMARK  162  A    between atoms: _388  and  _390
REMARK  163  A    between atoms: _390  and  _391
REMARK  164  A    between atoms: _390  and  _393
REMARK  165  A    between atoms: _393  and  _394
REMARK  166  A    between atoms: _399  and  _400
REMARK  167  A    between atoms: _402  and  _404
REMARK  168  A    between atoms: _404  and  _405
REMARK  169  A    between atoms: _404  and  _407
REMARK  170  A    between atoms: _407  and  _408
REMARK  171  A    between atoms: _408  and  _409
REMARK  172  A    between atoms: _409  and  _410
REMARK  173  A    between atoms: _419  and  _421
REMARK  174  A    between atoms: _421  and  _422
REMARK  175  A    between atoms: _421  and  _424
REMARK  176  A    between atoms: _424  and  _425
REMARK  177  A    between atoms: _428  and  _430
REMARK  178  A    between atoms: _430  and  _431
REMARK  179  A    between atoms: _430  and  _433
REMARK  180  A    between atoms: _433  and  _434
REMARK  181  A    between atoms: _439  and  _441
REMARK  182  A    between atoms: _441  and  _442
REMARK  183  A    between atoms: _445  and  _447
REMARK  184  A    between atoms: _447  and  _448
REMARK  185  A    between atoms: _447  and  _450
REMARK  186  A    between atoms: _450  and  _451
REMARK  187  A    between atoms: _451  and  _452
REMARK  188  A    between atoms: _452  and  _453
REMARK  189  A    between atoms: _462  and  _464
REMARK  190  A    between atoms: _464  and  _465
REMARK  191  A    between atoms: _464  and  _467
REMARK  192  A    between atoms: _467  and  _468
REMARK  193  A    between atoms: _473  and  _475
REMARK  194  A    between atoms: _475  and  _476
REMARK  195  A    between atoms: _475  and  _478
REMARK  196  A    between atoms: _481  and  _483
REMARK  197  A    between atoms: _483  and  _484
REMARK  198  A    between atoms: _483  and  _486
REMARK  199  A    between atoms: _486  and  _487
REMARK  200  A    between atoms: _490  and  _492
REMARK  201  A    between atoms: _492  and  _493
REMARK  202  A    between atoms: _492  and  _495
REMARK  203  A    between atoms: _498  and  _500
REMARK  204  A    between atoms: _500  and  _501
REMARK  205  A    between atoms: _500  and  _503
REMARK  206  A    between atoms: _503  and  _504
REMARK  207  A    between atoms: _504  and  _505
REMARK  208  A    between atoms: _505  and  _506
REMARK  209  A    between atoms: _506  and  _507
REMARK  210  A    between atoms: _511  and  _513
REMARK  211  A    between atoms: _513  and  _514
REMARK  212  A    between atoms: _513  and  _516
REMARK  213  A    between atoms: _516  and  _517
REMARK  214  A    between atoms: _520  and  _522
REMARK  215  A    between atoms: _522  and  _523
REMARK  216  A    between atoms: _522  and  _525
REMARK  217  A    between atoms: _525  and  _526
REMARK  218  A    between atoms: _529  and  _531
REMARK  219  A    between atoms: _531  and  _532
REMARK  220  A    between atoms: _531  and  _534
REMARK  221  A    between atoms: _534  and  _535
REMARK  222  A    between atoms: _538  and  _540
REMARK  223  A    between atoms: _540  and  _541
REMARK  224  A    between atoms: _540  and  _543
REMARK  225  A    between atoms: _543  and  _544
REMARK  226  A    between atoms: _550  and  _552
REMARK  227  A    between atoms: _552  and  _553
REMARK  228  A    between atoms: _555  and  _557
REMARK  229  A    between atoms: _557  and  _558
REMARK  230  A    between atoms: _557  and  _560
REMARK  231  A    between atoms: _560  and  _561
REMARK  232  A    between atoms: _564  and  _566
REMARK  233  A    between atoms: _566  and  _567
REMARK  234  A    between atoms: _570  and  _572
REMARK  235  A    between atoms: _572  and  _573
REMARK  236  A    between atoms: _572  and  _575
REMARK  237  A    between atoms: _575  and  _576
REMARK  238  A    between atoms: _586  and  _588
REMARK  239  A    between atoms: _588  and  _589
REMARK  240  A    between atoms: _588  and  _591
REMARK  241  A    between atoms: _591  and  _592
REMARK  242  A    between atoms: _592  and  _593
REMARK  243  A    between atoms: _596  and  _598
REMARK  244  A    between atoms: _598  and  _599
REMARK  245  A    between atoms: _601  and  _603
REMARK  246  A    between atoms: _603  and  _604
REMARK  247  A    between atoms: _603  and  _606
REMARK  248  A    between atoms: _606  and  _607
REMARK  249  A    between atoms: _610  and  _612
REMARK  250  A    between atoms: _612  and  _613
REMARK  251  A    between atoms: _612  and  _615
REMARK  252  A    between atoms: _615  and  _616
REMARK  253  A    between atoms: _616  and  _617
REMARK                            x       y       z     vdW  Elec       q    Type
REMARK                         _______ _______ _______ _____ _____    ______ ____
ROOT
ATOM      1  O   HOH     1      31.529  37.566  31.131  0.00  0.00    +0.000 OA
ENDROOT
TORSDOF 0
REMARK  Name = ../refined-set-2016/1xkk/1xkk_pocket.pdb
REMARK  253 active torsions:
REMARK  status: ('A' for Active; 'I' for Inactive)
REMARK    1  A    between atoms: _1  and  _3
REMARK    2  A    between atoms: _3  and  _4
REMARK    3  A    between atoms: _3  and  _6
REMARK    4  A    between atoms: _9  and  _11
REMARK    5  A    between atoms: _11  and  _12
REMARK    6  A    between atoms: _11  and  _14
REMARK    7  A    between atoms: _14  and  _15
REMARK    8  A    between atoms: _18  and  _20
REMARK    9  A    between atoms: _20  and  _21
REMARK   10  A    between atoms: _23  and  _25
REMARK   11  A    between atoms: _25  and  _26
REMARK   12  A    between atoms: _25  and  _28
REMARK   13  A    between atoms: _28  and  _29
REMARK   14  A    between atoms: _31  and  _33
REMARK   15  A    between atoms: _33  and  _34
REMARK   16  A    between atoms: _36  and  _38
REMARK   17  A    between atoms: _38  and  _39
REMARK   18  A    between atoms: _38  and  _41
REMARK   19  A    between atoms: _41  and  _42
REMARK   20  A    between atoms: _48  and  _50
REMARK   21  A    between atoms: _50  and  _51
REMARK   22  A    between atoms: _50  and  _53
REMARK   23  A    between atoms: _53  and  _54
REMARK   24  A    between atoms: _57  and  _59
REMARK   25  A    between atoms: _59  and  _60
REMARK   26  A    between atoms: _59  and  _62
REMARK   27  A    between atoms: _65  and  _67
REMARK   28  A    between atoms: _67  and  _68
REMARK   29  A    between atoms: _67  and  _70
REMARK   30  A    between atoms: _70  and  _71
REMARK   31  A    between atoms: _76  and  _77
REMARK   32  A    between atoms: _79  and  _81
REMARK   33  A    between atoms: _81  and  _82
REMARK   34  A    between atoms: _81  and  _84
REMARK   35  A    between atoms: _84  and  _85
REMARK   36  A    between atoms: _85  and  _86
REMARK   37  A    between atoms: _86  and  _87
REMARK   38  A    between atoms: _87  and  _88
REMARK   39  A    between atoms: _92  and  _94
REMARK   40  A    between atoms: _94  and  _95
REMARK   41  A    between atoms: _98  and  _99
REMARK   42  A    between atoms: _104  and  _106
REMARK   43  A    between atoms: _106  and  _107
REMARK   44  A    between atoms: _106  and  _109
REMARK   45  A    between atoms: _112  and  _114
REMARK   46  A    between atoms: _114  and  _115
REMARK   47  A    between atoms: _118  and  _120
REMARK   48  A    between atoms: _120  and  _121
REMARK   49  A    between atoms: _120  and  _123
REMARK   50  A    between atoms: _123  and  _124
REMARK   51  A    between atoms: _127  and  _129
REMARK   52  A    between atoms: _129  and  _130
REMARK   53  A    between atoms: _129  and  _132
REMARK   54  A    between atoms: _132  and  _133
REMARK   55  A    between atoms: _133  and  _134
REMARK   56  A    between atoms: _134  and  _135
REMARK   57  A    between atoms: _135  and  _136
REMARK   58  A    between atoms: _140  and  _142
REMARK   59  A    between atoms: _142  and  _143
REMARK   60  A    between atoms: _142  and  _145
REMARK   61  A    between atoms: _145  and  _146
REMARK   62  A    between atoms: _146  and  _147
REMARK   63  A    between atoms: _150  and  _152
REMARK   64  A    between atoms: _152  and  _153
REMARK   65  A    between atoms: _152  and  _155
REMARK   66  A    between atoms: _155  and  _156
REMARK   67  A    between atoms: _159  and  _161
REMARK   68  A    between atoms: _161  and  _162
REMARK   69  A    between atoms: _161  and  _164
REMARK   70  A    between atoms: _164  and  _165
REMARK   71  A    between atoms: _165  and  _166
REMARK   72  A    between atoms: _169  and  _171
REMARK   73  A    between atoms: _171  and  _172
REMARK   74  A    between atoms: _175  and  _177
REMARK   75  A    between atoms: _177  and  _178
REMARK   76  A    between atoms: _177  and  _180
REMARK   77  A    between atoms: _183  and  _185
REMARK   78  A    between atoms: _185  and  _186
REMARK   79  A    between atoms: _185  and  _188
REMARK   80  A    between atoms: _188  and  _189
REMARK   81  A    between atoms: _189  and  _190
REMARK   82  A    between atoms: _192  and  _194
REMARK   83  A    between atoms: _194  and  _195
REMARK   84  A    between atoms: _198  and  _200
REMARK   85  A    between atoms: _200  and  _201
REMARK   86  A    between atoms: _200  and  _203
REMARK   87  A    between atoms: _206  and  _208
REMARK   88  A    between atoms: _208  and  _209
REMARK   89  A    between atoms: _208  and  _211
REMARK   90  A    between atoms: _214  and  _216
REMARK   91  A    between atoms: _216  and  _217
REMARK   92  A    between atoms: _216  and  _219
REMARK   93  A    between atoms: _221  and  _223
REMARK   94  A    between atoms: _223  and  _224
REMARK   95  A    between atoms: _223  and  _226
REMARK   96  A    between atoms: _226  and  _227
REMARK   97  A    between atoms: _227  and  _228
REMARK   98  A    between atoms: _228  and  _229
REMARK   99  A    between atoms: _238  and  _240
REMARK  100  A    between atoms: _240  and  _241
REMARK  101  A    between atoms: _240  and  _243
REMARK  102  A    between atoms: _243  and  _244
REMARK  103  A    between atoms: _247  and  _249
REMARK  104  A    between atoms: _249  and  _250
REMARK  105  A    between atoms: _249  and  _252
REMARK  106  A    between atoms: _252  and  _253
REMARK  107  A    between atoms: _256  and  _258
REMARK  108  A    between atoms: _258  and  _259
REMARK  109  A    between atoms: _261  and  _263
REMARK  110  A    between atoms: _263  and  _264
REMARK  111  A    between atoms: _263  and  _266
REMARK  112  A    between atoms: _266  and  _267
REMARK  113  A    between atoms: _267  and  _268
REMARK  114  A    between atoms: _273  and  _275
REMARK  115  A    between atoms: _275  and  _276
REMARK  116  A    between atoms: _275  and  _278
REMARK  117  A    between atoms: _278  and  _279
REMARK  118  A    between atoms: _282  and  _284
REMARK  119  A    between atoms: _284  and  _285
REMARK  120  A    between atoms: _284  and  _287
REMARK  121  A    between atoms: _287  and  _288
REMARK  122  A    between atoms: _291  and  _293
REMARK  123  A    between atoms: _293  and  _294
REMARK  124  A    between atoms: _293  and  _296
REMARK  125  A    between atoms: _296  and  _297
REMARK  126  A    between atoms: _300  and  _302
REMARK  127  A    between atoms: _302  and  _303
REMARK  128  A    between atoms: _302  and  _305
REMARK  129  A    between atoms: _305  and  _306
REMARK  130  A    between atoms: _306  and  _307
REMARK  131  A    between atoms: _312  and  _314
REMARK  132  A    between atoms: _314  and  _315
REMARK  133  A    between atoms: _314  and  _317
REMARK  134  A    between atoms: _317  and  _318
REMARK  135  A    between atoms: _321  and  _323
REMARK  136  A    between atoms: _323  and  _324
REMARK  137  A    between atoms: _323  and  _326
REMARK  138  A    between atoms: _326  and  _327
REMARK  139  A    between atoms: _327  and  _328
REMARK  140  A    between atoms: _331  and  _332
REMARK  141  A    between atoms: _337  and  _339
REMARK  142  A    between atoms: _339  and  _340
REMARK  143  A    between atoms: _339  and  _342
REMARK  144  A    between atoms: _342  and  _343
REMARK  145  A    between atoms: _349  and  _351
REMARK  146  A    between atoms: _351  and  _352
REMARK  147  A    between atoms: _354  and  _356
REMARK  148  A    between atoms: _356  and  _357
REMARK  149  A    between atoms: _356  and  _359
REMARK  150  A    between atoms: _361  and  _363
REMARK  151  A    between atoms: _363  and  _364
REMARK  152  A    between atoms: _363  and  _366
REMARK  153  A    between atoms: _366  and  _367
REMARK  154  A    between atoms: _370  and  _372
REMARK  155  A    between atoms: _372  and  _373
REMARK  156  A    between atoms: _372  and  _375
REMARK  157  A    between atoms: _375  and  _376
REMARK  158  A    between atoms: _379  and  _381
REMARK  159  A    between atoms: _381  and  _382
REMARK  160  A    between atoms: _381  and  _384
REMARK  161  A    between atoms: _384  and  _385
REMARK  162  A    between atoms: _388  and  _390
REMARK  163  A    between atoms: _390  and  _391
REMARK  164  A    between atoms: _390  and  _393
REMARK  165  A    between atoms: _393  and  _394
REMARK  166  A    between atoms: _399  and  _400
REMARK  167  A    between atoms: _402  and  _404
REMARK  168  A    between atoms: _404  and  _405
REMARK  169  A    between atoms: _404  and  _407
REMARK  170  A    between atoms: _407  and  _408
REMARK  171  A    between atoms: _408  and  _409
REMARK  172  A    between atoms: _409  and  _410
REMARK  173  A    between atoms: _419  and  _421
REMARK  174  A    between atoms: _421  and  _422
REMARK  175  A    between atoms: _421  and  _424
REMARK  176  A    between atoms: _424  and  _425
REMARK  177  A    between atoms: _428  and  _430
REMARK  178  A    between atoms: _430  and  _431
REMARK  179  A    between atoms: _430  and  _433
REMARK  180  A    between atoms: _433  and  _434
REMARK  181  A    between atoms: _439  and  _441
REMARK  182  A    between atoms: _441  and  _442
REMARK  183  A    between atoms: _445  and  _447
REMARK  184  A    between atoms: _447  and  _448
REMARK  185  A    between atoms: _447  and  _450
REMARK  186  A    between atoms: _450  and  _451
REMARK  187  A    between atoms: _451  and  _452
REMARK  188  A    between atoms: _452  and  _453
REMARK  189  A    between atoms: _462  and  _464
REMARK  190  A    between atoms: _464  and  _465
REMARK  191  A    between atoms: _464  and  _467
REMARK  192  A    between atoms: _467  and  _468
REMARK  193  A    between atoms: _473  and  _475
REMARK  194  A    between atoms: _475  and  _476
REMARK  195  A    between atoms: _475  and  _478
REMARK  196  A    between atoms: _481  and  _483
REMARK  197  A    between atoms: _483  and  _484
REMARK  198  A    between atoms: _483  and  _486
REMARK  199  A    between atoms: _486  and  _487
REMARK  200  A    between atoms: _490  and  _492
REMARK  201  A    between atoms: _492  and  _493
REMARK  202  A    between atoms: _492  and  _495
REMARK  203  A    between atoms: _498  and  _500
REMARK  204  A    between atoms: _500  and  _501
REMARK  205  A    between atoms: _500  and  _503
REMARK  206  A    between atoms: _503  and  _504
REMARK  207  A    between atoms: _504  and  _505
REMARK  208  A    between atoms: _505  and  _506
REMARK  209  A    between atoms: _506  and  _507
REMARK  210  A    between atoms: _511  and  _513
REMARK  211  A    between atoms: _513  and  _514
REMARK  212  A    between atoms: _513  and  _516
REMARK  213  A    between atoms: _516  and  _517
REMARK  214  A    between atoms: _520  and  _522
REMARK  215  A    between atoms: _522  and  _523
REMARK  216  A    between atoms: _522  and  _525
REMARK  217  A    between atoms: _525  and  _526
REMARK  218  A    between atoms: _529  and  _531
REMARK  219  A    between atoms: _531  and  _532
REMARK  220  A    between atoms: _531  and  _534
REMARK  221  A    between atoms: _534  and  _535
REMARK  222  A    between atoms: _538  and  _540
REMARK  223  A    between atoms: _540  and  _541
REMARK  224  A    between atoms: _540  and  _543
REMARK  225  A    between atoms: _543  and  _544
REMARK  226  A    between atoms: _550  and  _552
REMARK  227  A    between atoms: _552  and  _553
REMARK  228  A    between atoms: _555  and  _557
REMARK  229  A    between atoms: _557  and  _558
REMARK  230  A    between atoms: _557  and  _560
REMARK  231  A    between atoms: _560  and  _561
REMARK  232  A    between atoms: _564  and  _566
REMARK  233  A    between atoms: _566  and  _567
REMARK  234  A    between atoms: _570  and  _572
REMARK  235  A    between atoms: _572  and  _573
REMARK  236  A    between atoms: _572  and  _575
REMARK  237  A    between atoms: _575  and  _576
REMARK  238  A    between atoms: _586  and  _588
REMARK  239  A    between atoms: _588  and  _589
REMARK  240  A    between atoms: _588  and  _591
REMARK  241  A    between atoms: _591  and  _592
REMARK  242  A    between atoms: _592  and  _593
REMARK  243  A    between atoms: _596  and  _598
REMARK  244  A    between atoms: _598  and  _599
REMARK  245  A    between atoms: _601  and  _603
REMARK  246  A    between atoms: _603  and  _604
REMARK  247  A    between atoms: _603  and  _606
REMARK  248  A    between atoms: _606  and  _607
REMARK  249  A    between atoms: _610  and  _612
REMARK  250  A    between atoms: _612  and  _613
REMARK  251  A    between atoms: _612  and  _615
REMARK  252  A    between atoms: _615  and  _616
REMARK  253  A    between atoms: _616  and  _617
REMARK                            x       y       z     vdW  Elec       q    Type
REMARK                         _______ _______ _______ _____ _____    ______ ____
ROOT
ATOM      1  O   HOH     1      22.934  41.404  45.450  0.00  0.00    +0.000 OA
ENDROOT
TORSDOF 0
REMARK  Name = ../refined-set-2016/1xkk/1xkk_pocket.pdb
REMARK  253 active torsions:
REMARK  status: ('A' for Active; 'I' for Inactive)
REMARK    1  A    between atoms: _1  and  _3
REMARK    2  A    between atoms: _3  and  _4
REMARK    3  A    between atoms: _3  and  _6
REMARK    4  A    between atoms: _9  and  _11
REMARK    5  A    between atoms: _11  and  _12
REMARK    6  A    between atoms: _11  and  _14
REMARK    7  A    between atoms: _14  and  _15
REMARK    8  A    between atoms: _18  and  _20
REMARK    9  A    between atoms: _20  and  _21
REMARK   10  A    between atoms: _23  and  _25
REMARK   11  A    between atoms: _25  and  _26
REMARK   12  A    between atoms: _25  and  _28
REMARK   13  A    between atoms: _28  and  _29
REMARK   14  A    between atoms: _31  and  _33
REMARK   15  A    between atoms: _33  and  _34
REMARK   16  A    between atoms: _36  and  _38
REMARK   17  A    between atoms: _38  and  _39
REMARK   18  A    between atoms: _38  and  _41
REMARK   19  A    between atoms: _41  and  _42
REMARK   20  A    between atoms: _48  and  _50
REMARK   21  A    between atoms: _50  and  _51
REMARK   22  A    between atoms: _50  and  _53
REMARK   23  A    between atoms: _53  and  _54
REMARK   24  A    between atoms: _57  and  _59
REMARK   25  A    between atoms: _59  and  _60
REMARK   26  A    between atoms: _59  and  _62
REMARK   27  A    between atoms: _65  and  _67
REMARK   28  A    between atoms: _67  and  _68
REMARK   29  A    between atoms: _67  and  _70
REMARK   30  A    between atoms: _70  and  _71
REMARK   31  A    between atoms: _76  and  _77
REMARK   32  A    between atoms: _79  and  _81
REMARK   33  A    between atoms: _81  and  _82
REMARK   34  A    between atoms: _81  and  _84
REMARK   35  A    between atoms: _84  and  _85
REMARK   36  A    between atoms: _85  and  _86
REMARK   37  A    between atoms: _86  and  _87
REMARK   38  A    between atoms: _87  and  _88
REMARK   39  A    between atoms: _92  and  _94
REMARK   40  A    between atoms: _94  and  _95
REMARK   41  A    between atoms: _98  and  _99
REMARK   42  A    between atoms: _104  and  _106
REMARK   43  A    between atoms: _106  and  _107
REMARK   44  A    between atoms: _106  and  _109
REMARK   45  A    between atoms: _112  and  _114
REMARK   46  A    between atoms: _114  and  _115
REMARK   47  A    between atoms: _118  and  _120
REMARK   48  A    between atoms: _120  and  _121
REMARK   49  A    between atoms: _120  and  _123
REMARK   50  A    between atoms: _123  and  _124
REMARK   51  A    between atoms: _127  and  _129
REMARK   52  A    between atoms: _129  and  _130
REMARK   53  A    between atoms: _129  and  _132
REMARK   54  A    between atoms: _132  and  _133
REMARK   55  A    between atoms: _133  and  _134
REMARK   56  A    between atoms: _134  and  _135
REMARK   57  A    between atoms: _135  and  _136
REMARK   58  A    between atoms: _140  and  _142
REMARK   59  A    between atoms: _142  and  _143
REMARK   60  A    between atoms: _142  and  _145
REMARK   61  A    between atoms: _145  and  _146
REMARK   62  A    between atoms: _146  and  _147
REMARK   63  A    between atoms: _150  and  _152
REMARK   64  A    between atoms: _152  and  _153
REMARK   65  A    between atoms: _152  and  _155
REMARK   66  A    between atoms: _155  and  _156
REMARK   67  A    between atoms: _159  and  _161
REMARK   68  A    between atoms: _161  and  _162
REMARK   69  A    between atoms: _161  and  _164
REMARK   70  A    between atoms: _164  and  _165
REMARK   71  A    between atoms: _165  and  _166
REMARK   72  A    between atoms: _169  and  _171
REMARK   73  A    between atoms: _171  and  _172
REMARK   74  A    between atoms: _175  and  _177
REMARK   75  A    between atoms: _177  and  _178
REMARK   76  A    between atoms: _177  and  _180
REMARK   77  A    between atoms: _183  and  _185
REMARK   78  A    between atoms: _185  and  _186
REMARK   79  A    between atoms: _185  and  _188
REMARK   80  A    between atoms: _188  and  _189
REMARK   81  A    between atoms: _189  and  _190
REMARK   82  A    between atoms: _192  and  _194
REMARK   83  A    between atoms: _194  and  _195
REMARK   84  A    between atoms: _198  and  _200
REMARK   85  A    between atoms: _200  and  _201
REMARK   86  A    between atoms: _200  and  _203
REMARK   87  A    between atoms: _206  and  _208
REMARK   88  A    between atoms: _208  and  _209
REMARK   89  A    between atoms: _208  and  _211
REMARK   90  A    between atoms: _214  and  _216
REMARK   91  A    between atoms: _216  and  _217
REMARK   92  A    between atoms: _216  and  _219
REMARK   93  A    between atoms: _221  and  _223
REMARK   94  A    between atoms: _223  and  _224
REMARK   95  A    between atoms: _223  and  _226
REMARK   96  A    between atoms: _226  and  _227
REMARK   97  A    between atoms: _227  and  _228
REMARK   98  A    between atoms: _228  and  _229
REMARK   99  A    between atoms: _238  and  _240
REMARK  100  A    between atoms: _240  and  _241
REMARK  101  A    between atoms: _240  and  _243
REMARK  102  A    between atoms: _243  and  _244
REMARK  103  A    between atoms: _247  and  _249
REMARK  104  A    between atoms: _249  and  _250
REMARK  105  A    between atoms: _249  and  _252
REMARK  106  A    between atoms: _252  and  _253
REMARK  107  A    between atoms: _256  and  _258
REMARK  108  A    between atoms: _258  and  _259
REMARK  109  A    between atoms: _261  and  _263
REMARK  110  A    between atoms: _263  and  _264
REMARK  111  A    between atoms: _263  and  _266
REMARK  112  A    between atoms: _266  and  _267
REMARK  113  A    between atoms: _267  and  _268
REMARK  114  A    between atoms: _273  and  _275
REMARK  115  A    between atoms: _275  and  _276
REMARK  116  A    between atoms: _275  and  _278
REMARK  117  A    between atoms: _278  and  _279
REMARK  118  A    between atoms: _282  and  _284
REMARK  119  A    between atoms: _284  and  _285
REMARK  120  A    between atoms: _284  and  _287
REMARK  121  A    between atoms: _287  and  _288
REMARK  122  A    between atoms: _291  and  _293
REMARK  123  A    between atoms: _293  and  _294
REMARK  124  A    between atoms: _293  and  _296
REMARK  125  A    between atoms: _296  and  _297
REMARK  126  A    between atoms: _300  and  _302
REMARK  127  A    between atoms: _302  and  _303
REMARK  128  A    between atoms: _302  and  _305
REMARK  129  A    between atoms: _305  and  _306
REMARK  130  A    between atoms: _306  and  _307
REMARK  131  A    between atoms: _312  and  _314
REMARK  132  A    between atoms: _314  and  _315
REMARK  133  A    between atoms: _314  and  _317
REMARK  134  A    between atoms: _317  and  _318
REMARK  135  A    between atoms: _321  and  _323
REMARK  136  A    between atoms: _323  and  _324
REMARK  137  A    between atoms: _323  and  _326
REMARK  138  A    between atoms: _326  and  _327
REMARK  139  A    between atoms: _327  and  _328
REMARK  140  A    between atoms: _331  and  _332
REMARK  141  A    between atoms: _337  and  _339
REMARK  142  A    between atoms: _339  and  _340
REMARK  143  A    between atoms: _339  and  _342
REMARK  144  A    between atoms: _342  and  _343
REMARK  145  A    between atoms: _349  and  _351
REMARK  146  A    between atoms: _351  and  _352
REMARK  147  A    between atoms: _354  and  _356
REMARK  148  A    between atoms: _356  and  _357
REMARK  149  A    between atoms: _356  and  _359
REMARK  150  A    between atoms: _361  and  _363
REMARK  151  A    between atoms: _363  and  _364
REMARK  152  A    between atoms: _363  and  _366
REMARK  153  A    between atoms: _366  and  _367
REMARK  154  A    between atoms: _370  and  _372
REMARK  155  A    between atoms: _372  and  _373
REMARK  156  A    between atoms: _372  and  _375
REMARK  157  A    between atoms: _375  and  _376
REMARK  158  A    between atoms: _379  and  _381
REMARK  159  A    between atoms: _381  and  _382
REMARK  160  A    between atoms: _381  and  _384
REMARK  161  A    between atoms: _384  and  _385
REMARK  162  A    between atoms: _388  and  _390
REMARK  163  A    between atoms: _390  and  _391
REMARK  164  A    between atoms: _390  and  _393
REMARK  165  A    between atoms: _393  and  _394
REMARK  166  A    between atoms: _399  and  _400
REMARK  167  A    between atoms: _402  and  _404
REMARK  168  A    between atoms: _404  and  _405
REMARK  169  A    between atoms: _404  and  _407
REMARK  170  A    between atoms: _407  and  _408
REMARK  171  A    between atoms: _408  and  _409
REMARK  172  A    between atoms: _409  and  _410
REMARK  173  A    between atoms: _419  and  _421
REMARK  174  A    between atoms: _421  and  _422
REMARK  175  A    between atoms: _421  and  _424
REMARK  176  A    between atoms: _424  and  _425
REMARK  177  A    between atoms: _428  and  _430
REMARK  178  A    between atoms: _430  and  _431
REMARK  179  A    between atoms: _430  and  _433
REMARK  180  A    between atoms: _433  and  _434
REMARK  181  A    between atoms: _439  and  _441
REMARK  182  A    between atoms: _441  and  _442
REMARK  183  A    between atoms: _445  and  _447
REMARK  184  A    between atoms: _447  and  _448
REMARK  185  A    between atoms: _447  and  _450
REMARK  186  A    between atoms: _450  and  _451
REMARK  187  A    between atoms: _451  and  _452
REMARK  188  A    between atoms: _452  and  _453
REMARK  189  A    between atoms: _462  and  _464
REMARK  190  A    between atoms: _464  and  _465
REMARK  191  A    between atoms: _464  and  _467
REMARK  192  A    between atoms: _467  and  _468
REMARK  193  A    between atoms: _473  and  _475
REMARK  194  A    between atoms: _475  and  _476
REMARK  195  A    between atoms: _475  and  _478
REMARK  196  A    between atoms: _481  and  _483
REMARK  197  A    between atoms: _483  and  _484
REMARK  198  A    between atoms: _483  and  _486
REMARK  199  A    between atoms: _486  and  _487
REMARK  200  A    between atoms: _490  and  _492
REMARK  201  A    between atoms: _492  and  _493
REMARK  202  A    between atoms: _492  and  _495
REMARK  203  A    between atoms: _498  and  _500
REMARK  204  A    between atoms: _500  and  _501
REMARK  205  A    between atoms: _500  and  _503
REMARK  206  A    between atoms: _503  and  _504
REMARK  207  A    between atoms: _504  and  _505
REMARK  208  A    between atoms: _505  and  _506
REMARK  209  A    between atoms: _506  and  _507
REMARK  210  A    between atoms: _511  and  _513
REMARK  211  A    between atoms: _513  and  _514
REMARK  212  A    between atoms: _513  and  _516
REMARK  213  A    between atoms: _516  and  _517
REMARK  214  A    between atoms: _520  and  _522
REMARK  215  A    between atoms: _522  and  _523
REMARK  216  A    between atoms: _522  and  _525
REMARK  217  A    between atoms: _525  and  _526
REMARK  218  A    between atoms: _529  and  _531
REMARK  219  A    between atoms: _531  and  _532
REMARK  220  A    between atoms: _531  and  _534
REMARK  221  A    between atoms: _534  and  _535
REMARK  222  A    between atoms: _538  and  _540
REMARK  223  A    between atoms: _540  and  _541
REMARK  224  A    between atoms: _540  and  _543
REMARK  225  A    between atoms: _543  and  _544
REMARK  226  A    between atoms: _550  and  _552
REMARK  227  A    between atoms: _552  and  _553
REMARK  228  A    between atoms: _555  and  _557
REMARK  229  A    between atoms: _557  and  _558
REMARK  230  A    between atoms: _557  and  _560
REMARK  231  A    between atoms: _560  and  _561
REMARK  232  A    between atoms: _564  and  _566
REMARK  233  A    between atoms: _566  and  _567
REMARK  234  A    between atoms: _570  and  _572
REMARK  235  A    between atoms: _572  and  _573
REMARK  236  A    between atoms: _572  and  _575
REMARK  237  A    between atoms: _575  and  _576
REMARK  238  A    between atoms: _586  and  _588
REMARK  239  A    between atoms: _588  and  _589
REMARK  240  A    between atoms: _588  and  _591
REMARK  241  A    between atoms: _591  and  _592
REMARK  242  A    between atoms: _592  and  _593
REMARK  243  A    between atoms: _596  and  _598
REMARK  244  A    between atoms: _598  and  _599
REMARK  245  A    between atoms: _601  and  _603
REMARK  246  A    between atoms: _603  and  _604
REMARK  247  A    between atoms: _603  and  _606
REMARK  248  A    between atoms: _606  and  _607
REMARK  249  A    between atoms: _610  and  _612
REMARK  250  A    between atoms: _612  and  _613
REMARK  251  A    between atoms: _612  and  _615
REMARK  252  A    between atoms: _615  and  _616
REMARK  253  A    between atoms: _616  and  _617
REMARK                            x       y       z     vdW  Elec       q    Type
REMARK                         _______ _______ _______ _____ _____    ______ ____
ROOT
ATOM      1  O   HOH     1      27.017  37.589  32.689  0.00  0.00    +0.000 OA
ENDROOT
TORSDOF 0
