REMARK  Name = ../refined-set-2016/3s77/3s77_pocket.pdb
REMARK  149 active torsions:
REMARK  status: ('A' for Active; 'I' for Inactive)
REMARK    1  A    between atoms: _1  and  _3
REMARK    2  A    between atoms: _3  and  _4
REMARK    3  A    between atoms: _3  and  _6
REMARK    4  A    between atoms: _6  and  _7
REMARK    5  A    between atoms: _17  and  _19
REMARK    6  A    between atoms: _19  and  _20
REMARK    7  A    between atoms: _19  and  _22
REMARK    8  A    between atoms: _22  and  _23
REMARK    9  A    between atoms: _28  and  _29
REMARK   10  A    between atoms: _31  and  _33
REMARK   11  A    between atoms: _33  and  _34
REMARK   12  A    between atoms: _33  and  _36
REMARK   13  A    between atoms: _36  and  _37
REMARK   14  A    between atoms: _40  and  _41
REMARK   15  A    between atoms: _46  and  _48
REMARK   16  A    between atoms: _48  and  _49
REMARK   17  A    between atoms: _48  and  _51
REMARK   18  A    between atoms: _51  and  _52
REMARK   19  A    between atoms: _57  and  _59
REMARK   20  A    between atoms: _59  and  _60
REMARK   21  A    between atoms: _59  and  _62
REMARK   22  A    between atoms: _62  and  _63
REMARK   23  A    between atoms: _68  and  _70
REMARK   24  A    between atoms: _70  and  _71
REMARK   25  A    between atoms: _74  and  _76
REMARK   26  A    between atoms: _76  and  _77
REMARK   27  A    between atoms: _76  and  _79
REMARK   28  A    between atoms: _79  and  _80
REMARK   29  A    between atoms: _85  and  _87
REMARK   30  A    between atoms: _87  and  _88
REMARK   31  A    between atoms: _87  and  _90
REMARK   32  A    between atoms: _90  and  _91
REMARK   33  A    between atoms: _94  and  _96
REMARK   34  A    between atoms: _96  and  _97
REMARK   35  A    between atoms: _96  and  _99
REMARK   36  A    between atoms: _99  and  _100
REMARK   37  A    between atoms: _100  and  _101
REMARK   38  A    between atoms: _106  and  _108
REMARK   39  A    between atoms: _108  and  _109
REMARK   40  A    between atoms: _108  and  _111
REMARK   41  A    between atoms: _111  and  _112
REMARK   42  A    between atoms: _118  and  _120
REMARK   43  A    between atoms: _131  and  _134
REMARK   44  A    between atoms: _134  and  _135
REMARK   45  A    between atoms: _143  and  _144
REMARK   46  A    between atoms: _152  and  _154
REMARK   47  A    between atoms: _154  and  _155
REMARK   48  A    between atoms: _154  and  _157
REMARK   49  A    between atoms: _157  and  _158
REMARK   50  A    between atoms: _158  and  _159
REMARK   51  A    between atoms: _162  and  _164
REMARK   52  A    between atoms: _164  and  _165
REMARK   53  A    between atoms: _164  and  _167
REMARK   54  A    between atoms: _167  and  _168
REMARK   55  A    between atoms: _173  and  _175
REMARK   56  A    between atoms: _175  and  _176
REMARK   57  A    between atoms: _175  and  _178
REMARK   58  A    between atoms: _178  and  _179
REMARK   59  A    between atoms: _179  and  _180
REMARK   60  A    between atoms: _183  and  _185
REMARK   61  A    between atoms: _185  and  _186
REMARK   62  A    between atoms: _185  and  _188
REMARK   63  A    between atoms: _188  and  _189
REMARK   64  A    between atoms: _192  and  _194
REMARK   65  A    between atoms: _194  and  _195
REMARK   66  A    between atoms: _194  and  _197
REMARK   67  A    between atoms: _197  and  _198
REMARK   68  A    between atoms: _199  and  ZN_419
REMARK   69  A    between atoms: _203  and  _205
REMARK   70  A    between atoms: _205  and  _206
REMARK   71  A    between atoms: _205  and  _208
REMARK   72  A    between atoms: _208  and  _209
REMARK   73  A    between atoms: _212  and  _214
REMARK   74  A    between atoms: _214  and  _215
REMARK   75  A    between atoms: _214  and  _217
REMARK   76  A    between atoms: _220  and  _222
REMARK   77  A    between atoms: _222  and  _223
REMARK   78  A    between atoms: _222  and  _225
REMARK   79  A    between atoms: _225  and  _226
REMARK   80  A    between atoms: _231  and  _233
REMARK   81  A    between atoms: _233  and  _234
REMARK   82  A    between atoms: _233  and  _236
REMARK   83  A    between atoms: _236  and  _237
REMARK   84  A    between atoms: _243  and  _245
REMARK   85  A    between atoms: _245  and  _246
REMARK   86  A    between atoms: _245  and  _248
REMARK   87  A    between atoms: _251  and  _253
REMARK   88  A    between atoms: _253  and  _254
REMARK   89  A    between atoms: _253  and  _256
REMARK   90  A    between atoms: _256  and  _257
REMARK   91  A    between atoms: _260  and  _262
REMARK   92  A    between atoms: _262  and  _263
REMARK   93  A    between atoms: _266  and  _268
REMARK   94  A    between atoms: _268  and  _269
REMARK   95  A    between atoms: _268  and  _271
REMARK   96  A    between atoms: _274  and  _276
REMARK   97  A    between atoms: _276  and  _277
REMARK   98  A    between atoms: _276  and  _279
REMARK   99  A    between atoms: _279  and  _280
REMARK  100  A    between atoms: _283  and  _285
REMARK  101  A    between atoms: _285  and  _286
REMARK  102  A    between atoms: _288  and  _290
REMARK  103  A    between atoms: _290  and  _291
REMARK  104  A    between atoms: _293  and  _295
REMARK  105  A    between atoms: _295  and  _296
REMARK  106  A    between atoms: _295  and  _298
REMARK  107  A    between atoms: _298  and  _299
REMARK  108  A    between atoms: _301  and  _303
REMARK  109  A    between atoms: _303  and  _304
REMARK  110  A    between atoms: _303  and  _306
REMARK  111  A    between atoms: _306  and  _307
REMARK  112  A    between atoms: _310  and  _312
REMARK  113  A    between atoms: _312  and  _313
REMARK  114  A    between atoms: _312  and  _315
REMARK  115  A    between atoms: _315  and  _316
REMARK  116  A    between atoms: _319  and  _321
REMARK  117  A    between atoms: _321  and  _322
REMARK  118  A    between atoms: _321  and  _324
REMARK  119  A    between atoms: _324  and  _325
REMARK  120  A    between atoms: _329  and  _330
REMARK  121  A    between atoms: _336  and  _337
REMARK  122  A    between atoms: _342  and  _344
REMARK  123  A    between atoms: _344  and  _345
REMARK  124  A    between atoms: _344  and  _347
REMARK  125  A    between atoms: _347  and  _348
REMARK  126  A    between atoms: _351  and  _353
REMARK  127  A    between atoms: _353  and  _354
REMARK  128  A    between atoms: _353  and  _356
REMARK  129  A    between atoms: _356  and  _357
REMARK  130  A    between atoms: _360  and  _362
REMARK  131  A    between atoms: _362  and  _363
REMARK  132  A    between atoms: _362  and  _365
REMARK  133  A    between atoms: _367  and  _369
REMARK  134  A    between atoms: _369  and  _370
REMARK  135  A    between atoms: _369  and  _372
REMARK  136  A    between atoms: _375  and  _377
REMARK  137  A    between atoms: _377  and  _378
REMARK  138  A    between atoms: _377  and  _380
REMARK  139  A    between atoms: _380  and  _381
REMARK  140  A    between atoms: _391  and  _393
REMARK  141  A    between atoms: _393  and  _394
REMARK  142  A    between atoms: _393  and  _396
REMARK  143  A    between atoms: _396  and  _397
REMARK  144  A    between atoms: _402  and  _404
REMARK  145  A    between atoms: _404  and  _405
REMARK  146  A    between atoms: _404  and  _407
REMARK  147  A    between atoms: _407  and  _408
REMARK  148  A    between atoms: _408  and  _409
REMARK  149  A    between atoms: _409  and  _410
REMARK                            x       y       z     vdW  Elec       q    Type
REMARK                         _______ _______ _______ _____ _____    ______ ____
ROOT
ATOM      1  CG  TRP A   1      26.990   0.237  12.171  0.00  0.00    -0.002 A 
ATOM      2  CD2 TRP A   1      25.614  -0.168  12.045  0.00  0.00    +0.013 A 
ATOM      3  CE3 TRP A   1      24.970  -1.395  12.185  0.00  0.00    +0.001 A 
ATOM      4  CZ3 TRP A   1      23.566  -1.430  12.014  0.00  0.00    +0.000 A 
ATOM      5  CH2 TRP A   1      22.847  -0.281  11.682  0.00  0.00    +0.001 A 
ATOM      6  CZ2 TRP A   1      23.469   0.943  11.546  0.00  0.00    +0.017 A 
ATOM      7  CE2 TRP A   1      24.855   0.981  11.703  0.00  0.00    +0.056 A 
ATOM      8  NE1 TRP A   1      25.718   2.045  11.587  0.00  0.00    -0.352 N 
ATOM      9  HE1 TRP A   1      25.455   3.012  11.310  0.00  0.00    +0.166 HD
ATOM     10  CD1 TRP A   1      27.026   1.604  11.907  0.00  0.00    +0.068 A 
ENDROOT
BRANCH   1  11
ATOM     11  CB  TRP A   1      28.124  -0.673  12.536  0.00  0.00    +0.053 C 
BRANCH  11  12
ATOM     12  CA  TRP A   1      28.773  -1.312  11.293  0.00  0.00    +0.137 C 
BRANCH  12  13
ATOM     13  N   TRP A   1      29.263  -0.272  10.406  0.00  0.00    -0.239 NA
ATOM     14  H   TRP A   1      28.853   0.683  10.456  0.00  0.00    +0.142 HD
ENDBRANCH  12  13
BRANCH  12  15
ATOM     15  C   TRP A   1      27.782  -2.147  10.516  0.00  0.00    +0.224 C 
ATOM     16  O   TRP A   1      27.214  -1.695   9.475  0.00  0.00    -0.287 OA
ENDBRANCH  12  15
ENDBRANCH  11  12
ENDBRANCH   1  11
TORSDOF 4
REMARK  Name = ../refined-set-2016/3s77/3s77_pocket.pdb
REMARK  149 active torsions:
REMARK  status: ('A' for Active; 'I' for Inactive)
REMARK    1  A    between atoms: _1  and  _3
REMARK    2  A    between atoms: _3  and  _4
REMARK    3  A    between atoms: _3  and  _6
REMARK    4  A    between atoms: _6  and  _7
REMARK    5  A    between atoms: _17  and  _19
REMARK    6  A    between atoms: _19  and  _20
REMARK    7  A    between atoms: _19  and  _22
REMARK    8  A    between atoms: _22  and  _23
REMARK    9  A    between atoms: _28  and  _29
REMARK   10  A    between atoms: _31  and  _33
REMARK   11  A    between atoms: _33  and  _34
REMARK   12  A    between atoms: _33  and  _36
REMARK   13  A    between atoms: _36  and  _37
REMARK   14  A    between atoms: _40  and  _41
REMARK   15  A    between atoms: _46  and  _48
REMARK   16  A    between atoms: _48  and  _49
REMARK   17  A    between atoms: _48  and  _51
REMARK   18  A    between atoms: _51  and  _52
REMARK   19  A    between atoms: _57  and  _59
REMARK   20  A    between atoms: _59  and  _60
REMARK   21  A    between atoms: _59  and  _62
REMARK   22  A    between atoms: _62  and  _63
REMARK   23  A    between atoms: _68  and  _70
REMARK   24  A    between atoms: _70  and  _71
REMARK   25  A    between atoms: _74  and  _76
REMARK   26  A    between atoms: _76  and  _77
REMARK   27  A    between atoms: _76  and  _79
REMARK   28  A    between atoms: _79  and  _80
REMARK   29  A    between atoms: _85  and  _87
REMARK   30  A    between atoms: _87  and  _88
REMARK   31  A    between atoms: _87  and  _90
REMARK   32  A    between atoms: _90  and  _91
REMARK   33  A    between atoms: _94  and  _96
REMARK   34  A    between atoms: _96  and  _97
REMARK   35  A    between atoms: _96  and  _99
REMARK   36  A    between atoms: _99  and  _100
REMARK   37  A    between atoms: _100  and  _101
REMARK   38  A    between atoms: _106  and  _108
REMARK   39  A    between atoms: _108  and  _109
REMARK   40  A    between atoms: _108  and  _111
REMARK   41  A    between atoms: _111  and  _112
REMARK   42  A    between atoms: _118  and  _120
REMARK   43  A    between atoms: _131  and  _134
REMARK   44  A    between atoms: _134  and  _135
REMARK   45  A    between atoms: _143  and  _144
REMARK   46  A    between atoms: _152  and  _154
REMARK   47  A    between atoms: _154  and  _155
REMARK   48  A    between atoms: _154  and  _157
REMARK   49  A    between atoms: _157  and  _158
REMARK   50  A    between atoms: _158  and  _159
REMARK   51  A    between atoms: _162  and  _164
REMARK   52  A    between atoms: _164  and  _165
REMARK   53  A    between atoms: _164  and  _167
REMARK   54  A    between atoms: _167  and  _168
REMARK   55  A    between atoms: _173  and  _175
REMARK   56  A    between atoms: _175  and  _176
REMARK   57  A    between atoms: _175  and  _178
REMARK   58  A    between atoms: _178  and  _179
REMARK   59  A    between atoms: _179  and  _180
REMARK   60  A    between atoms: _183  and  _185
REMARK   61  A    between atoms: _185  and  _186
REMARK   62  A    between atoms: _185  and  _188
REMARK   63  A    between atoms: _188  and  _189
REMARK   64  A    between atoms: _192  and  _194
REMARK   65  A    between atoms: _194  and  _195
REMARK   66  A    between atoms: _194  and  _197
REMARK   67  A    between atoms: _197  and  _198
REMARK   68  A    between atoms: _199  and  ZN_419
REMARK   69  A    between atoms: _203  and  _205
REMARK   70  A    between atoms: _205  and  _206
REMARK   71  A    between atoms: _205  and  _208
REMARK   72  A    between atoms: _208  and  _209
REMARK   73  A    between atoms: _212  and  _214
REMARK   74  A    between atoms: _214  and  _215
REMARK   75  A    between atoms: _214  and  _217
REMARK   76  A    between atoms: _220  and  _222
REMARK   77  A    between atoms: _222  and  _223
REMARK   78  A    between atoms: _222  and  _225
REMARK   79  A    between atoms: _225  and  _226
REMARK   80  A    between atoms: _231  and  _233
REMARK   81  A    between atoms: _233  and  _234
REMARK   82  A    between atoms: _233  and  _236
REMARK   83  A    between atoms: _236  and  _237
REMARK   84  A    between atoms: _243  and  _245
REMARK   85  A    between atoms: _245  and  _246
REMARK   86  A    between atoms: _245  and  _248
REMARK   87  A    between atoms: _251  and  _253
REMARK   88  A    between atoms: _253  and  _254
REMARK   89  A    between atoms: _253  and  _256
REMARK   90  A    between atoms: _256  and  _257
REMARK   91  A    between atoms: _260  and  _262
REMARK   92  A    between atoms: _262  and  _263
REMARK   93  A    between atoms: _266  and  _268
REMARK   94  A    between atoms: _268  and  _269
REMARK   95  A    between atoms: _268  and  _271
REMARK   96  A    between atoms: _274  and  _276
REMARK   97  A    between atoms: _276  and  _277
REMARK   98  A    between atoms: _276  and  _279
REMARK   99  A    between atoms: _279  and  _280
REMARK  100  A    between atoms: _283  and  _285
REMARK  101  A    between atoms: _285  and  _286
REMARK  102  A    between atoms: _288  and  _290
REMARK  103  A    between atoms: _290  and  _291
REMARK  104  A    between atoms: _293  and  _295
REMARK  105  A    between atoms: _295  and  _296
REMARK  106  A    between atoms: _295  and  _298
REMARK  107  A    between atoms: _298  and  _299
REMARK  108  A    between atoms: _301  and  _303
REMARK  109  A    between atoms: _303  and  _304
REMARK  110  A    between atoms: _303  and  _306
REMARK  111  A    between atoms: _306  and  _307
REMARK  112  A    between atoms: _310  and  _312
REMARK  113  A    between atoms: _312  and  _313
REMARK  114  A    between atoms: _312  and  _315
REMARK  115  A    between atoms: _315  and  _316
REMARK  116  A    between atoms: _319  and  _321
REMARK  117  A    between atoms: _321  and  _322
REMARK  118  A    between atoms: _321  and  _324
REMARK  119  A    between atoms: _324  and  _325
REMARK  120  A    between atoms: _329  and  _330
REMARK  121  A    between atoms: _336  and  _337
REMARK  122  A    between atoms: _342  and  _344
REMARK  123  A    between atoms: _344  and  _345
REMARK  124  A    between atoms: _344  and  _347
REMARK  125  A    between atoms: _347  and  _348
REMARK  126  A    between atoms: _351  and  _353
REMARK  127  A    between atoms: _353  and  _354
REMARK  128  A    between atoms: _353  and  _356
REMARK  129  A    between atoms: _356  and  _357
REMARK  130  A    between atoms: _360  and  _362
REMARK  131  A    between atoms: _362  and  _363
REMARK  132  A    between atoms: _362  and  _365
REMARK  133  A    between atoms: _367  and  _369
REMARK  134  A    between atoms: _369  and  _370
REMARK  135  A    between atoms: _369  and  _372
REMARK  136  A    between atoms: _375  and  _377
REMARK  137  A    between atoms: _377  and  _378
REMARK  138  A    between atoms: _377  and  _380
REMARK  139  A    between atoms: _380  and  _381
REMARK  140  A    between atoms: _391  and  _393
REMARK  141  A    between atoms: _393  and  _394
REMARK  142  A    between atoms: _393  and  _396
REMARK  143  A    between atoms: _396  and  _397
REMARK  144  A    between atoms: _402  and  _404
REMARK  145  A    between atoms: _404  and  _405
REMARK  146  A    between atoms: _404  and  _407
REMARK  147  A    between atoms: _407  and  _408
REMARK  148  A    between atoms: _408  and  _409
REMARK  149  A    between atoms: _409  and  _410
REMARK                            x       y       z     vdW  Elec       q    Type
REMARK                         _______ _______ _______ _____ _____    ______ ____
ROOT
ATOM      1  CG  TYR A   1      23.110  -6.980  11.830  0.00  0.00    -0.020 A 
ATOM      2  CD2 TYR A   1      22.724  -6.999  13.192  0.00  0.00    -0.001 A 
ATOM      3  CE2 TYR A   1      21.874  -5.981  13.717  0.00  0.00    +0.036 A 
ATOM      4  CZ  TYR A   1      21.440  -4.946  12.854  0.00  0.00    +0.134 A 
ATOM      5  CE1 TYR A   1      21.850  -4.916  11.466  0.00  0.00    +0.036 A 
ATOM      6  CD1 TYR A   1      22.680  -5.953  10.996  0.00  0.00    -0.001 A 
ENDROOT
BRANCH   4   7
ATOM      7  OH  TYR A   1      20.615  -3.937  13.327  0.00  0.00    -0.506 OA
ATOM      8  HH  TYR A   1      19.772  -4.332  13.664  0.00  0.00    +0.292 HD
ENDBRANCH   4   7
BRANCH   1   9
ATOM      9  CB  TYR A   1      24.013  -8.059  11.282  0.00  0.00    +0.051 C 
BRANCH   9  10
ATOM     10  CA  TYR A   1      25.486  -7.660  11.460  0.00  0.00    +0.137 C 
BRANCH  10  11
ATOM     11  N   TYR A   1      25.817  -6.500  10.648  0.00  0.00    -0.239 NA
ATOM     12  H   TYR A   1      25.735  -6.555   9.613  0.00  0.00    +0.142 HD
ENDBRANCH  10  11
BRANCH  10  13
ATOM     13  C   TYR A   1      26.379  -8.875  11.238  0.00  0.00    +0.224 C 
ATOM     14  O   TYR A   1      26.027  -9.968  11.668  0.00  0.00    -0.287 OA
ENDBRANCH  10  13
ENDBRANCH   9  10
ENDBRANCH   1   9
TORSDOF 5
REMARK  Name = ../refined-set-2016/3s77/3s77_pocket.pdb
REMARK  149 active torsions:
REMARK  status: ('A' for Active; 'I' for Inactive)
REMARK    1  A    between atoms: _1  and  _3
REMARK    2  A    between atoms: _3  and  _4
REMARK    3  A    between atoms: _3  and  _6
REMARK    4  A    between atoms: _6  and  _7
REMARK    5  A    between atoms: _17  and  _19
REMARK    6  A    between atoms: _19  and  _20
REMARK    7  A    between atoms: _19  and  _22
REMARK    8  A    between atoms: _22  and  _23
REMARK    9  A    between atoms: _28  and  _29
REMARK   10  A    between atoms: _31  and  _33
REMARK   11  A    between atoms: _33  and  _34
REMARK   12  A    between atoms: _33  and  _36
REMARK   13  A    between atoms: _36  and  _37
REMARK   14  A    between atoms: _40  and  _41
REMARK   15  A    between atoms: _46  and  _48
REMARK   16  A    between atoms: _48  and  _49
REMARK   17  A    between atoms: _48  and  _51
REMARK   18  A    between atoms: _51  and  _52
REMARK   19  A    between atoms: _57  and  _59
REMARK   20  A    between atoms: _59  and  _60
REMARK   21  A    between atoms: _59  and  _62
REMARK   22  A    between atoms: _62  and  _63
REMARK   23  A    between atoms: _68  and  _70
REMARK   24  A    between atoms: _70  and  _71
REMARK   25  A    between atoms: _74  and  _76
REMARK   26  A    between atoms: _76  and  _77
REMARK   27  A    between atoms: _76  and  _79
REMARK   28  A    between atoms: _79  and  _80
REMARK   29  A    between atoms: _85  and  _87
REMARK   30  A    between atoms: _87  and  _88
REMARK   31  A    between atoms: _87  and  _90
REMARK   32  A    between atoms: _90  and  _91
REMARK   33  A    between atoms: _94  and  _96
REMARK   34  A    between atoms: _96  and  _97
REMARK   35  A    between atoms: _96  and  _99
REMARK   36  A    between atoms: _99  and  _100
REMARK   37  A    between atoms: _100  and  _101
REMARK   38  A    between atoms: _106  and  _108
REMARK   39  A    between atoms: _108  and  _109
REMARK   40  A    between atoms: _108  and  _111
REMARK   41  A    between atoms: _111  and  _112
REMARK   42  A    between atoms: _118  and  _120
REMARK   43  A    between atoms: _131  and  _134
REMARK   44  A    between atoms: _134  and  _135
REMARK   45  A    between atoms: _143  and  _144
REMARK   46  A    between atoms: _152  and  _154
REMARK   47  A    between atoms: _154  and  _155
REMARK   48  A    between atoms: _154  and  _157
REMARK   49  A    between atoms: _157  and  _158
REMARK   50  A    between atoms: _158  and  _159
REMARK   51  A    between atoms: _162  and  _164
REMARK   52  A    between atoms: _164  and  _165
REMARK   53  A    between atoms: _164  and  _167
REMARK   54  A    between atoms: _167  and  _168
REMARK   55  A    between atoms: _173  and  _175
REMARK   56  A    between atoms: _175  and  _176
REMARK   57  A    between atoms: _175  and  _178
REMARK   58  A    between atoms: _178  and  _179
REMARK   59  A    between atoms: _179  and  _180
REMARK   60  A    between atoms: _183  and  _185
REMARK   61  A    between atoms: _185  and  _186
REMARK   62  A    between atoms: _185  and  _188
REMARK   63  A    between atoms: _188  and  _189
REMARK   64  A    between atoms: _192  and  _194
REMARK   65  A    between atoms: _194  and  _195
REMARK   66  A    between atoms: _194  and  _197
REMARK   67  A    between atoms: _197  and  _198
REMARK   68  A    between atoms: _199  and  ZN_419
REMARK   69  A    between atoms: _203  and  _205
REMARK   70  A    between atoms: _205  and  _206
REMARK   71  A    between atoms: _205  and  _208
REMARK   72  A    between atoms: _208  and  _209
REMARK   73  A    between atoms: _212  and  _214
REMARK   74  A    between atoms: _214  and  _215
REMARK   75  A    between atoms: _214  and  _217
REMARK   76  A    between atoms: _220  and  _222
REMARK   77  A    between atoms: _222  and  _223
REMARK   78  A    between atoms: _222  and  _225
REMARK   79  A    between atoms: _225  and  _226
REMARK   80  A    between atoms: _231  and  _233
REMARK   81  A    between atoms: _233  and  _234
REMARK   82  A    between atoms: _233  and  _236
REMARK   83  A    between atoms: _236  and  _237
REMARK   84  A    between atoms: _243  and  _245
REMARK   85  A    between atoms: _245  and  _246
REMARK   86  A    between atoms: _245  and  _248
REMARK   87  A    between atoms: _251  and  _253
REMARK   88  A    between atoms: _253  and  _254
REMARK   89  A    between atoms: _253  and  _256
REMARK   90  A    between atoms: _256  and  _257
REMARK   91  A    between atoms: _260  and  _262
REMARK   92  A    between atoms: _262  and  _263
REMARK   93  A    between atoms: _266  and  _268
REMARK   94  A    between atoms: _268  and  _269
REMARK   95  A    between atoms: _268  and  _271
REMARK   96  A    between atoms: _274  and  _276
REMARK   97  A    between atoms: _276  and  _277
REMARK   98  A    between atoms: _276  and  _279
REMARK   99  A    between atoms: _279  and  _280
REMARK  100  A    between atoms: _283  and  _285
REMARK  101  A    between atoms: _285  and  _286
REMARK  102  A    between atoms: _288  and  _290
REMARK  103  A    between atoms: _290  and  _291
REMARK  104  A    between atoms: _293  and  _295
REMARK  105  A    between atoms: _295  and  _296
REMARK  106  A    between atoms: _295  and  _298
REMARK  107  A    between atoms: _298  and  _299
REMARK  108  A    between atoms: _301  and  _303
REMARK  109  A    between atoms: _303  and  _304
REMARK  110  A    between atoms: _303  and  _306
REMARK  111  A    between atoms: _306  and  _307
REMARK  112  A    between atoms: _310  and  _312
REMARK  113  A    between atoms: _312  and  _313
REMARK  114  A    between atoms: _312  and  _315
REMARK  115  A    between atoms: _315  and  _316
REMARK  116  A    between atoms: _319  and  _321
REMARK  117  A    between atoms: _321  and  _322
REMARK  118  A    between atoms: _321  and  _324
REMARK  119  A    between atoms: _324  and  _325
REMARK  120  A    between atoms: _329  and  _330
REMARK  121  A    between atoms: _336  and  _337
REMARK  122  A    between atoms: _342  and  _344
REMARK  123  A    between atoms: _344  and  _345
REMARK  124  A    between atoms: _344  and  _347
REMARK  125  A    between atoms: _347  and  _348
REMARK  126  A    between atoms: _351  and  _353
REMARK  127  A    between atoms: _353  and  _354
REMARK  128  A    between atoms: _353  and  _356
REMARK  129  A    between atoms: _356  and  _357
REMARK  130  A    between atoms: _360  and  _362
REMARK  131  A    between atoms: _362  and  _363
REMARK  132  A    between atoms: _362  and  _365
REMARK  133  A    between atoms: _367  and  _369
REMARK  134  A    between atoms: _369  and  _370
REMARK  135  A    between atoms: _369  and  _372
REMARK  136  A    between atoms: _375  and  _377
REMARK  137  A    between atoms: _377  and  _378
REMARK  138  A    between atoms: _377  and  _380
REMARK  139  A    between atoms: _380  and  _381
REMARK  140  A    between atoms: _391  and  _393
REMARK  141  A    between atoms: _393  and  _394
REMARK  142  A    between atoms: _393  and  _396
REMARK  143  A    between atoms: _396  and  _397
REMARK  144  A    between atoms: _402  and  _404
REMARK  145  A    between atoms: _404  and  _405
REMARK  146  A    between atoms: _404  and  _407
REMARK  147  A    between atoms: _407  and  _408
REMARK  148  A    between atoms: _408  and  _409
REMARK  149  A    between atoms: _409  and  _410
REMARK                            x       y       z     vdW  Elec       q    Type
REMARK                         _______ _______ _______ _____ _____    ______ ____
ROOT
ATOM      1  C   SER A   1      18.795  -3.023  23.192  0.00  0.00    +0.244 C 
ATOM      2  N   PRO A   2      18.201  -4.176  22.888  0.00  0.00    -0.273 N 
ATOM      3  CA  PRO A   2      17.053  -4.681  23.598  0.00  0.00    +0.140 C 
ATOM      4  CB  PRO A   2      16.494  -5.714  22.638  0.00  0.00    +0.030 C 
ATOM      5  CG  PRO A   2      17.823  -6.375  22.077  0.00  0.00    +0.024 C 
ATOM      6  CD  PRO A   2      18.616  -5.071  21.773  0.00  0.00    +0.094 C 
ATOM      7  O   SER A   1      19.828  -2.666  22.618  0.00  0.00    -0.273 OA
ENDROOT
BRANCH   3   8
ATOM      8  C   PRO A   2      17.439  -5.321  24.933  0.00  0.00    +0.227 C 
ATOM      9  O   PRO A   2      18.623  -5.292  25.309  0.00  0.00    -0.286 OA
ENDBRANCH   3   8
BRANCH   1  10
ATOM     10  CA  SER A   1      18.193  -2.100  24.265  0.00  0.00    +0.175 C 
BRANCH  10  11
ATOM     11  N   SER A   1      19.250  -1.227  24.788  0.00  0.00    -0.236 NA
ATOM     12  H   SER A   1      19.710  -0.581  24.116  0.00  0.00    +0.142 HD
ENDBRANCH  10  11
BRANCH  10  13
ATOM     13  CB  SER A   1      17.085  -1.250  23.731  0.00  0.00    +0.163 C 
BRANCH  13  14
ATOM     14  OG  SER A   1      16.518  -0.614  24.884  0.00  0.00    -0.380 OA
ATOM     15  H   SER A   1      16.181  -1.305  25.508  0.00  0.00    +0.211 HD
ENDBRANCH  13  14
ENDBRANCH  10  13
ENDBRANCH   1  10
TORSDOF 5
REMARK  Name = ../refined-set-2016/3s77/3s77_pocket.pdb
REMARK  149 active torsions:
REMARK  status: ('A' for Active; 'I' for Inactive)
REMARK    1  A    between atoms: _1  and  _3
REMARK    2  A    between atoms: _3  and  _4
REMARK    3  A    between atoms: _3  and  _6
REMARK    4  A    between atoms: _6  and  _7
REMARK    5  A    between atoms: _17  and  _19
REMARK    6  A    between atoms: _19  and  _20
REMARK    7  A    between atoms: _19  and  _22
REMARK    8  A    between atoms: _22  and  _23
REMARK    9  A    between atoms: _28  and  _29
REMARK   10  A    between atoms: _31  and  _33
REMARK   11  A    between atoms: _33  and  _34
REMARK   12  A    between atoms: _33  and  _36
REMARK   13  A    between atoms: _36  and  _37
REMARK   14  A    between atoms: _40  and  _41
REMARK   15  A    between atoms: _46  and  _48
REMARK   16  A    between atoms: _48  and  _49
REMARK   17  A    between atoms: _48  and  _51
REMARK   18  A    between atoms: _51  and  _52
REMARK   19  A    between atoms: _57  and  _59
REMARK   20  A    between atoms: _59  and  _60
REMARK   21  A    between atoms: _59  and  _62
REMARK   22  A    between atoms: _62  and  _63
REMARK   23  A    between atoms: _68  and  _70
REMARK   24  A    between atoms: _70  and  _71
REMARK   25  A    between atoms: _74  and  _76
REMARK   26  A    between atoms: _76  and  _77
REMARK   27  A    between atoms: _76  and  _79
REMARK   28  A    between atoms: _79  and  _80
REMARK   29  A    between atoms: _85  and  _87
REMARK   30  A    between atoms: _87  and  _88
REMARK   31  A    between atoms: _87  and  _90
REMARK   32  A    between atoms: _90  and  _91
REMARK   33  A    between atoms: _94  and  _96
REMARK   34  A    between atoms: _96  and  _97
REMARK   35  A    between atoms: _96  and  _99
REMARK   36  A    between atoms: _99  and  _100
REMARK   37  A    between atoms: _100  and  _101
REMARK   38  A    between atoms: _106  and  _108
REMARK   39  A    between atoms: _108  and  _109
REMARK   40  A    between atoms: _108  and  _111
REMARK   41  A    between atoms: _111  and  _112
REMARK   42  A    between atoms: _118  and  _120
REMARK   43  A    between atoms: _131  and  _134
REMARK   44  A    between atoms: _134  and  _135
REMARK   45  A    between atoms: _143  and  _144
REMARK   46  A    between atoms: _152  and  _154
REMARK   47  A    between atoms: _154  and  _155
REMARK   48  A    between atoms: _154  and  _157
REMARK   49  A    between atoms: _157  and  _158
REMARK   50  A    between atoms: _158  and  _159
REMARK   51  A    between atoms: _162  and  _164
REMARK   52  A    between atoms: _164  and  _165
REMARK   53  A    between atoms: _164  and  _167
REMARK   54  A    between atoms: _167  and  _168
REMARK   55  A    between atoms: _173  and  _175
REMARK   56  A    between atoms: _175  and  _176
REMARK   57  A    between atoms: _175  and  _178
REMARK   58  A    between atoms: _178  and  _179
REMARK   59  A    between atoms: _179  and  _180
REMARK   60  A    between atoms: _183  and  _185
REMARK   61  A    between atoms: _185  and  _186
REMARK   62  A    between atoms: _185  and  _188
REMARK   63  A    between atoms: _188  and  _189
REMARK   64  A    between atoms: _192  and  _194
REMARK   65  A    between atoms: _194  and  _195
REMARK   66  A    between atoms: _194  and  _197
REMARK   67  A    between atoms: _197  and  _198
REMARK   68  A    between atoms: _199  and  ZN_419
REMARK   69  A    between atoms: _203  and  _205
REMARK   70  A    between atoms: _205  and  _206
REMARK   71  A    between atoms: _205  and  _208
REMARK   72  A    between atoms: _208  and  _209
REMARK   73  A    between atoms: _212  and  _214
REMARK   74  A    between atoms: _214  and  _215
REMARK   75  A    between atoms: _214  and  _217
REMARK   76  A    between atoms: _220  and  _222
REMARK   77  A    between atoms: _222  and  _223
REMARK   78  A    between atoms: _222  and  _225
REMARK   79  A    between atoms: _225  and  _226
REMARK   80  A    between atoms: _231  and  _233
REMARK   81  A    between atoms: _233  and  _234
REMARK   82  A    between atoms: _233  and  _236
REMARK   83  A    between atoms: _236  and  _237
REMARK   84  A    between atoms: _243  and  _245
REMARK   85  A    between atoms: _245  and  _246
REMARK   86  A    between atoms: _245  and  _248
REMARK   87  A    between atoms: _251  and  _253
REMARK   88  A    between atoms: _253  and  _254
REMARK   89  A    between atoms: _253  and  _256
REMARK   90  A    between atoms: _256  and  _257
REMARK   91  A    between atoms: _260  and  _262
REMARK   92  A    between atoms: _262  and  _263
REMARK   93  A    between atoms: _266  and  _268
REMARK   94  A    between atoms: _268  and  _269
REMARK   95  A    between atoms: _268  and  _271
REMARK   96  A    between atoms: _274  and  _276
REMARK   97  A    between atoms: _276  and  _277
REMARK   98  A    between atoms: _276  and  _279
REMARK   99  A    between atoms: _279  and  _280
REMARK  100  A    between atoms: _283  and  _285
REMARK  101  A    between atoms: _285  and  _286
REMARK  102  A    between atoms: _288  and  _290
REMARK  103  A    between atoms: _290  and  _291
REMARK  104  A    between atoms: _293  and  _295
REMARK  105  A    between atoms: _295  and  _296
REMARK  106  A    between atoms: _295  and  _298
REMARK  107  A    between atoms: _298  and  _299
REMARK  108  A    between atoms: _301  and  _303
REMARK  109  A    between atoms: _303  and  _304
REMARK  110  A    between atoms: _303  and  _306
REMARK  111  A    between atoms: _306  and  _307
REMARK  112  A    between atoms: _310  and  _312
REMARK  113  A    between atoms: _312  and  _313
REMARK  114  A    between atoms: _312  and  _315
REMARK  115  A    between atoms: _315  and  _316
REMARK  116  A    between atoms: _319  and  _321
REMARK  117  A    between atoms: _321  and  _322
REMARK  118  A    between atoms: _321  and  _324
REMARK  119  A    between atoms: _324  and  _325
REMARK  120  A    between atoms: _329  and  _330
REMARK  121  A    between atoms: _336  and  _337
REMARK  122  A    between atoms: _342  and  _344
REMARK  123  A    between atoms: _344  and  _345
REMARK  124  A    between atoms: _344  and  _347
REMARK  125  A    between atoms: _347  and  _348
REMARK  126  A    between atoms: _351  and  _353
REMARK  127  A    between atoms: _353  and  _354
REMARK  128  A    between atoms: _353  and  _356
REMARK  129  A    between atoms: _356  and  _357
REMARK  130  A    between atoms: _360  and  _362
REMARK  131  A    between atoms: _362  and  _363
REMARK  132  A    between atoms: _362  and  _365
REMARK  133  A    between atoms: _367  and  _369
REMARK  134  A    between atoms: _369  and  _370
REMARK  135  A    between atoms: _369  and  _372
REMARK  136  A    between atoms: _375  and  _377
REMARK  137  A    between atoms: _377  and  _378
REMARK  138  A    between atoms: _377  and  _380
REMARK  139  A    between atoms: _380  and  _381
REMARK  140  A    between atoms: _391  and  _393
REMARK  141  A    between atoms: _393  and  _394
REMARK  142  A    between atoms: _393  and  _396
REMARK  143  A    between atoms: _396  and  _397
REMARK  144  A    between atoms: _402  and  _404
REMARK  145  A    between atoms: _404  and  _405
REMARK  146  A    between atoms: _404  and  _407
REMARK  147  A    between atoms: _407  and  _408
REMARK  148  A    between atoms: _408  and  _409
REMARK  149  A    between atoms: _409  and  _410
REMARK                            x       y       z     vdW  Elec       q    Type
REMARK                         _______ _______ _______ _____ _____    ______ ____
ROOT
ATOM      1  CB  ASN A   1      18.480   2.213   5.247  0.00  0.00    +0.110 C 
ENDROOT
BRANCH   1   2
ATOM      2  CG  ASN A   1      18.139   1.333   6.498  0.00  0.00    +0.221 C 
ATOM      3  ND2 ASN A   1      17.386   1.893   7.415  0.00  0.00    -0.329 N 
ATOM      4 HD21 ASN A   1      17.095   1.349   8.252  0.00  0.00    +0.145 HD
ATOM      5 HD22 ASN A   1      17.080   2.881   7.304  0.00  0.00    +0.145 HD
ATOM      6  OD1 ASN A   1      18.536   0.157   6.575  0.00  0.00    -0.275 OA
ENDBRANCH   1   2
BRANCH   1   7
ATOM      7  CA  ASN A   1      18.904   1.355   4.007  0.00  0.00    +0.142 C 
BRANCH   7   8
ATOM      8  N   ASN A   1      17.814   0.412   3.593  0.00  0.00    -0.239 NA
ATOM      9  H   ASN A   1      17.315  -0.148   4.313  0.00  0.00    +0.142 HD
ENDBRANCH   7   8
BRANCH   7  10
ATOM     10  C   ASN A   1      20.144   0.518   4.292  0.00  0.00    +0.225 C 
ATOM     11  O   ASN A   1      21.072   0.937   5.022  0.00  0.00    -0.287 OA
ENDBRANCH   7  10
ENDBRANCH   1   7
TORSDOF 4
REMARK  Name = ../refined-set-2016/3s77/3s77_pocket.pdb
REMARK  149 active torsions:
REMARK  status: ('A' for Active; 'I' for Inactive)
REMARK    1  A    between atoms: _1  and  _3
REMARK    2  A    between atoms: _3  and  _4
REMARK    3  A    between atoms: _3  and  _6
REMARK    4  A    between atoms: _6  and  _7
REMARK    5  A    between atoms: _17  and  _19
REMARK    6  A    between atoms: _19  and  _20
REMARK    7  A    between atoms: _19  and  _22
REMARK    8  A    between atoms: _22  and  _23
REMARK    9  A    between atoms: _28  and  _29
REMARK   10  A    between atoms: _31  and  _33
REMARK   11  A    between atoms: _33  and  _34
REMARK   12  A    between atoms: _33  and  _36
REMARK   13  A    between atoms: _36  and  _37
REMARK   14  A    between atoms: _40  and  _41
REMARK   15  A    between atoms: _46  and  _48
REMARK   16  A    between atoms: _48  and  _49
REMARK   17  A    between atoms: _48  and  _51
REMARK   18  A    between atoms: _51  and  _52
REMARK   19  A    between atoms: _57  and  _59
REMARK   20  A    between atoms: _59  and  _60
REMARK   21  A    between atoms: _59  and  _62
REMARK   22  A    between atoms: _62  and  _63
REMARK   23  A    between atoms: _68  and  _70
REMARK   24  A    between atoms: _70  and  _71
REMARK   25  A    between atoms: _74  and  _76
REMARK   26  A    between atoms: _76  and  _77
REMARK   27  A    between atoms: _76  and  _79
REMARK   28  A    between atoms: _79  and  _80
REMARK   29  A    between atoms: _85  and  _87
REMARK   30  A    between atoms: _87  and  _88
REMARK   31  A    between atoms: _87  and  _90
REMARK   32  A    between atoms: _90  and  _91
REMARK   33  A    between atoms: _94  and  _96
REMARK   34  A    between atoms: _96  and  _97
REMARK   35  A    between atoms: _96  and  _99
REMARK   36  A    between atoms: _99  and  _100
REMARK   37  A    between atoms: _100  and  _101
REMARK   38  A    between atoms: _106  and  _108
REMARK   39  A    between atoms: _108  and  _109
REMARK   40  A    between atoms: _108  and  _111
REMARK   41  A    between atoms: _111  and  _112
REMARK   42  A    between atoms: _118  and  _120
REMARK   43  A    between atoms: _131  and  _134
REMARK   44  A    between atoms: _134  and  _135
REMARK   45  A    between atoms: _143  and  _144
REMARK   46  A    between atoms: _152  and  _154
REMARK   47  A    between atoms: _154  and  _155
REMARK   48  A    between atoms: _154  and  _157
REMARK   49  A    between atoms: _157  and  _158
REMARK   50  A    between atoms: _158  and  _159
REMARK   51  A    between atoms: _162  and  _164
REMARK   52  A    between atoms: _164  and  _165
REMARK   53  A    between atoms: _164  and  _167
REMARK   54  A    between atoms: _167  and  _168
REMARK   55  A    between atoms: _173  and  _175
REMARK   56  A    between atoms: _175  and  _176
REMARK   57  A    between atoms: _175  and  _178
REMARK   58  A    between atoms: _178  and  _179
REMARK   59  A    between atoms: _179  and  _180
REMARK   60  A    between atoms: _183  and  _185
REMARK   61  A    between atoms: _185  and  _186
REMARK   62  A    between atoms: _185  and  _188
REMARK   63  A    between atoms: _188  and  _189
REMARK   64  A    between atoms: _192  and  _194
REMARK   65  A    between atoms: _194  and  _195
REMARK   66  A    between atoms: _194  and  _197
REMARK   67  A    between atoms: _197  and  _198
REMARK   68  A    between atoms: _199  and  ZN_419
REMARK   69  A    between atoms: _203  and  _205
REMARK   70  A    between atoms: _205  and  _206
REMARK   71  A    between atoms: _205  and  _208
REMARK   72  A    between atoms: _208  and  _209
REMARK   73  A    between atoms: _212  and  _214
REMARK   74  A    between atoms: _214  and  _215
REMARK   75  A    between atoms: _214  and  _217
REMARK   76  A    between atoms: _220  and  _222
REMARK   77  A    between atoms: _222  and  _223
REMARK   78  A    between atoms: _222  and  _225
REMARK   79  A    between atoms: _225  and  _226
REMARK   80  A    between atoms: _231  and  _233
REMARK   81  A    between atoms: _233  and  _234
REMARK   82  A    between atoms: _233  and  _236
REMARK   83  A    between atoms: _236  and  _237
REMARK   84  A    between atoms: _243  and  _245
REMARK   85  A    between atoms: _245  and  _246
REMARK   86  A    between atoms: _245  and  _248
REMARK   87  A    between atoms: _251  and  _253
REMARK   88  A    between atoms: _253  and  _254
REMARK   89  A    between atoms: _253  and  _256
REMARK   90  A    between atoms: _256  and  _257
REMARK   91  A    between atoms: _260  and  _262
REMARK   92  A    between atoms: _262  and  _263
REMARK   93  A    between atoms: _266  and  _268
REMARK   94  A    between atoms: _268  and  _269
REMARK   95  A    between atoms: _268  and  _271
REMARK   96  A    between atoms: _274  and  _276
REMARK   97  A    between atoms: _276  and  _277
REMARK   98  A    between atoms: _276  and  _279
REMARK   99  A    between atoms: _279  and  _280
REMARK  100  A    between atoms: _283  and  _285
REMARK  101  A    between atoms: _285  and  _286
REMARK  102  A    between atoms: _288  and  _290
REMARK  103  A    between atoms: _290  and  _291
REMARK  104  A    between atoms: _293  and  _295
REMARK  105  A    between atoms: _295  and  _296
REMARK  106  A    between atoms: _295  and  _298
REMARK  107  A    between atoms: _298  and  _299
REMARK  108  A    between atoms: _301  and  _303
REMARK  109  A    between atoms: _303  and  _304
REMARK  110  A    between atoms: _303  and  _306
REMARK  111  A    between atoms: _306  and  _307
REMARK  112  A    between atoms: _310  and  _312
REMARK  113  A    between atoms: _312  and  _313
REMARK  114  A    between atoms: _312  and  _315
REMARK  115  A    between atoms: _315  and  _316
REMARK  116  A    between atoms: _319  and  _321
REMARK  117  A    between atoms: _321  and  _322
REMARK  118  A    between atoms: _321  and  _324
REMARK  119  A    between atoms: _324  and  _325
REMARK  120  A    between atoms: _329  and  _330
REMARK  121  A    between atoms: _336  and  _337
REMARK  122  A    between atoms: _342  and  _344
REMARK  123  A    between atoms: _344  and  _345
REMARK  124  A    between atoms: _344  and  _347
REMARK  125  A    between atoms: _347  and  _348
REMARK  126  A    between atoms: _351  and  _353
REMARK  127  A    between atoms: _353  and  _354
REMARK  128  A    between atoms: _353  and  _356
REMARK  129  A    between atoms: _356  and  _357
REMARK  130  A    between atoms: _360  and  _362
REMARK  131  A    between atoms: _362  and  _363
REMARK  132  A    between atoms: _362  and  _365
REMARK  133  A    between atoms: _367  and  _369
REMARK  134  A    between atoms: _369  and  _370
REMARK  135  A    between atoms: _369  and  _372
REMARK  136  A    between atoms: _375  and  _377
REMARK  137  A    between atoms: _377  and  _378
REMARK  138  A    between atoms: _377  and  _380
REMARK  139  A    between atoms: _380  and  _381
REMARK  140  A    between atoms: _391  and  _393
REMARK  141  A    between atoms: _393  and  _394
REMARK  142  A    between atoms: _393  and  _396
REMARK  143  A    between atoms: _396  and  _397
REMARK  144  A    between atoms: _402  and  _404
REMARK  145  A    between atoms: _404  and  _405
REMARK  146  A    between atoms: _404  and  _407
REMARK  147  A    between atoms: _407  and  _408
REMARK  148  A    between atoms: _408  and  _409
REMARK  149  A    between atoms: _409  and  _410
REMARK                            x       y       z     vdW  Elec       q    Type
REMARK                         _______ _______ _______ _____ _____    ______ ____
ROOT
ATOM      1  CA  HIS A   1      20.309  -2.775   7.632  0.00  0.00    +0.151 C 
ENDROOT
BRANCH   1   2
ATOM      2  C   HIS A   1      18.933  -3.348   7.861  0.00  0.00    +0.239 C 
ATOM      3  O   HIS A   1      18.809  -4.380   8.507  0.00  0.00    -0.274 OA
ATOM      4  N   ALA A   2      17.926  -2.723   7.276  0.00  0.00    -0.298 N 
ATOM      5  H   ALA A   2      18.119  -1.839   6.763  0.00  0.00    +0.150 HD
BRANCH   4   6
ATOM      6  CA  ALA A   2      16.570  -3.214   7.318  0.00  0.00    +0.137 C 
ATOM      7  CB  ALA A   2      15.956  -2.942   8.713  0.00  0.00    +0.030 C 
BRANCH   6   8
ATOM      8  C   ALA A   2      15.831  -2.473   6.208  0.00  0.00    +0.227 C 
ATOM      9  O   ALA A   2      16.467  -1.805   5.363  0.00  0.00    -0.286 OA
ENDBRANCH   6   8
ENDBRANCH   4   6
ENDBRANCH   1   2
BRANCH   1  10
ATOM     10  N   HIS A   1      20.380  -2.021   6.333  0.00  0.00    -0.238 NA
ATOM     11  H   HIS A   1      19.701  -1.255   6.146  0.00  0.00    +0.142 HD
ENDBRANCH   1  10
BRANCH   1  12
ATOM     12  CB  HIS A   1      20.822  -2.083   8.931  0.00  0.00    +0.074 C 
BRANCH  12  13
ATOM     13  CG  HIS A   1      20.517  -0.624   9.070  0.00  0.00    +0.082 A 
ATOM     14  ND1 HIS A   1      19.450  -0.140   9.796  0.00  0.00    -0.227 NA
ATOM     15  CE1 HIS A   1      19.482   1.182   9.808  0.00  0.00    +0.199 A 
ATOM     16  NE2 HIS A   1      20.532   1.574   9.109  0.00  0.00    -0.221 NA
ATOM     17  CD2 HIS A   1      21.213   0.467   8.664  0.00  0.00    +0.115 A 
ENDBRANCH  12  13
ENDBRANCH   1  12
TORSDOF 6
REMARK  Name = ../refined-set-2016/3s77/3s77_pocket.pdb
REMARK  149 active torsions:
REMARK  status: ('A' for Active; 'I' for Inactive)
REMARK    1  A    between atoms: _1  and  _3
REMARK    2  A    between atoms: _3  and  _4
REMARK    3  A    between atoms: _3  and  _6
REMARK    4  A    between atoms: _6  and  _7
REMARK    5  A    between atoms: _17  and  _19
REMARK    6  A    between atoms: _19  and  _20
REMARK    7  A    between atoms: _19  and  _22
REMARK    8  A    between atoms: _22  and  _23
REMARK    9  A    between atoms: _28  and  _29
REMARK   10  A    between atoms: _31  and  _33
REMARK   11  A    between atoms: _33  and  _34
REMARK   12  A    between atoms: _33  and  _36
REMARK   13  A    between atoms: _36  and  _37
REMARK   14  A    between atoms: _40  and  _41
REMARK   15  A    between atoms: _46  and  _48
REMARK   16  A    between atoms: _48  and  _49
REMARK   17  A    between atoms: _48  and  _51
REMARK   18  A    between atoms: _51  and  _52
REMARK   19  A    between atoms: _57  and  _59
REMARK   20  A    between atoms: _59  and  _60
REMARK   21  A    between atoms: _59  and  _62
REMARK   22  A    between atoms: _62  and  _63
REMARK   23  A    between atoms: _68  and  _70
REMARK   24  A    between atoms: _70  and  _71
REMARK   25  A    between atoms: _74  and  _76
REMARK   26  A    between atoms: _76  and  _77
REMARK   27  A    between atoms: _76  and  _79
REMARK   28  A    between atoms: _79  and  _80
REMARK   29  A    between atoms: _85  and  _87
REMARK   30  A    between atoms: _87  and  _88
REMARK   31  A    between atoms: _87  and  _90
REMARK   32  A    between atoms: _90  and  _91
REMARK   33  A    between atoms: _94  and  _96
REMARK   34  A    between atoms: _96  and  _97
REMARK   35  A    between atoms: _96  and  _99
REMARK   36  A    between atoms: _99  and  _100
REMARK   37  A    between atoms: _100  and  _101
REMARK   38  A    between atoms: _106  and  _108
REMARK   39  A    between atoms: _108  and  _109
REMARK   40  A    between atoms: _108  and  _111
REMARK   41  A    between atoms: _111  and  _112
REMARK   42  A    between atoms: _118  and  _120
REMARK   43  A    between atoms: _131  and  _134
REMARK   44  A    between atoms: _134  and  _135
REMARK   45  A    between atoms: _143  and  _144
REMARK   46  A    between atoms: _152  and  _154
REMARK   47  A    between atoms: _154  and  _155
REMARK   48  A    between atoms: _154  and  _157
REMARK   49  A    between atoms: _157  and  _158
REMARK   50  A    between atoms: _158  and  _159
REMARK   51  A    between atoms: _162  and  _164
REMARK   52  A    between atoms: _164  and  _165
REMARK   53  A    between atoms: _164  and  _167
REMARK   54  A    between atoms: _167  and  _168
REMARK   55  A    between atoms: _173  and  _175
REMARK   56  A    between atoms: _175  and  _176
REMARK   57  A    between atoms: _175  and  _178
REMARK   58  A    between atoms: _178  and  _179
REMARK   59  A    between atoms: _179  and  _180
REMARK   60  A    between atoms: _183  and  _185
REMARK   61  A    between atoms: _185  and  _186
REMARK   62  A    between atoms: _185  and  _188
REMARK   63  A    between atoms: _188  and  _189
REMARK   64  A    between atoms: _192  and  _194
REMARK   65  A    between atoms: _194  and  _195
REMARK   66  A    between atoms: _194  and  _197
REMARK   67  A    between atoms: _197  and  _198
REMARK   68  A    between atoms: _199  and  ZN_419
REMARK   69  A    between atoms: _203  and  _205
REMARK   70  A    between atoms: _205  and  _206
REMARK   71  A    between atoms: _205  and  _208
REMARK   72  A    between atoms: _208  and  _209
REMARK   73  A    between atoms: _212  and  _214
REMARK   74  A    between atoms: _214  and  _215
REMARK   75  A    between atoms: _214  and  _217
REMARK   76  A    between atoms: _220  and  _222
REMARK   77  A    between atoms: _222  and  _223
REMARK   78  A    between atoms: _222  and  _225
REMARK   79  A    between atoms: _225  and  _226
REMARK   80  A    between atoms: _231  and  _233
REMARK   81  A    between atoms: _233  and  _234
REMARK   82  A    between atoms: _233  and  _236
REMARK   83  A    between atoms: _236  and  _237
REMARK   84  A    between atoms: _243  and  _245
REMARK   85  A    between atoms: _245  and  _246
REMARK   86  A    between atoms: _245  and  _248
REMARK   87  A    between atoms: _251  and  _253
REMARK   88  A    between atoms: _253  and  _254
REMARK   89  A    between atoms: _253  and  _256
REMARK   90  A    between atoms: _256  and  _257
REMARK   91  A    between atoms: _260  and  _262
REMARK   92  A    between atoms: _262  and  _263
REMARK   93  A    between atoms: _266  and  _268
REMARK   94  A    between atoms: _268  and  _269
REMARK   95  A    between atoms: _268  and  _271
REMARK   96  A    between atoms: _274  and  _276
REMARK   97  A    between atoms: _276  and  _277
REMARK   98  A    between atoms: _276  and  _279
REMARK   99  A    between atoms: _279  and  _280
REMARK  100  A    between atoms: _283  and  _285
REMARK  101  A    between atoms: _285  and  _286
REMARK  102  A    between atoms: _288  and  _290
REMARK  103  A    between atoms: _290  and  _291
REMARK  104  A    between atoms: _293  and  _295
REMARK  105  A    between atoms: _295  and  _296
REMARK  106  A    between atoms: _295  and  _298
REMARK  107  A    between atoms: _298  and  _299
REMARK  108  A    between atoms: _301  and  _303
REMARK  109  A    between atoms: _303  and  _304
REMARK  110  A    between atoms: _303  and  _306
REMARK  111  A    between atoms: _306  and  _307
REMARK  112  A    between atoms: _310  and  _312
REMARK  113  A    between atoms: _312  and  _313
REMARK  114  A    between atoms: _312  and  _315
REMARK  115  A    between atoms: _315  and  _316
REMARK  116  A    between atoms: _319  and  _321
REMARK  117  A    between atoms: _321  and  _322
REMARK  118  A    between atoms: _321  and  _324
REMARK  119  A    between atoms: _324  and  _325
REMARK  120  A    between atoms: _329  and  _330
REMARK  121  A    between atoms: _336  and  _337
REMARK  122  A    between atoms: _342  and  _344
REMARK  123  A    between atoms: _344  and  _345
REMARK  124  A    between atoms: _344  and  _347
REMARK  125  A    between atoms: _347  and  _348
REMARK  126  A    between atoms: _351  and  _353
REMARK  127  A    between atoms: _353  and  _354
REMARK  128  A    between atoms: _353  and  _356
REMARK  129  A    between atoms: _356  and  _357
REMARK  130  A    between atoms: _360  and  _362
REMARK  131  A    between atoms: _362  and  _363
REMARK  132  A    between atoms: _362  and  _365
REMARK  133  A    between atoms: _367  and  _369
REMARK  134  A    between atoms: _369  and  _370
REMARK  135  A    between atoms: _369  and  _372
REMARK  136  A    between atoms: _375  and  _377
REMARK  137  A    between atoms: _377  and  _378
REMARK  138  A    between atoms: _377  and  _380
REMARK  139  A    between atoms: _380  and  _381
REMARK  140  A    between atoms: _391  and  _393
REMARK  141  A    between atoms: _393  and  _394
REMARK  142  A    between atoms: _393  and  _396
REMARK  143  A    between atoms: _396  and  _397
REMARK  144  A    between atoms: _402  and  _404
REMARK  145  A    between atoms: _404  and  _405
REMARK  146  A    between atoms: _404  and  _407
REMARK  147  A    between atoms: _407  and  _408
REMARK  148  A    between atoms: _408  and  _409
REMARK  149  A    between atoms: _409  and  _410
REMARK                            x       y       z     vdW  Elec       q    Type
REMARK                         _______ _______ _______ _____ _____    ______ ____
ROOT
ATOM      1  CB  ASN A   1      12.601   2.643   7.013  0.00  0.00    +0.110 C 
ENDROOT
BRANCH   1   2
ATOM      2  CG  ASN A   1      13.707   2.403   7.959  0.00  0.00    +0.221 C 
ATOM      3  OD1 ASN A   1      13.933   1.277   8.430  0.00  0.00    -0.275 OA
ATOM      4  ND2 ASN A   1      14.475   3.467   8.231  0.00  0.00    -0.329 N 
ATOM      5 HD21 ASN A   1      15.298   3.367   8.859  0.00  0.00    +0.145 HD
ATOM      6 HD22 ASN A   1      14.248   4.392   7.814  0.00  0.00    +0.145 HD
ENDBRANCH   1   2
BRANCH   1   7
ATOM      7  CA  ASN A   1      11.889   1.345   6.569  0.00  0.00    +0.142 C 
BRANCH   7   8
ATOM      8  N   ASN A   1      12.726   0.451   5.835  0.00  0.00    -0.239 NA
ATOM      9  H   ASN A   1      13.291   0.798   5.034  0.00  0.00    +0.142 HD
ENDBRANCH   7   8
BRANCH   7  10
ATOM     10  C   ASN A   1      10.768   1.763   5.730  0.00  0.00    +0.225 C 
ATOM     11  O   ASN A   1      10.949   2.213   4.582  0.00  0.00    -0.287 OA
ENDBRANCH   7  10
ENDBRANCH   1   7
TORSDOF 4
REMARK  Name = ../refined-set-2016/3s77/3s77_pocket.pdb
REMARK  149 active torsions:
REMARK  status: ('A' for Active; 'I' for Inactive)
REMARK    1  A    between atoms: _1  and  _3
REMARK    2  A    between atoms: _3  and  _4
REMARK    3  A    between atoms: _3  and  _6
REMARK    4  A    between atoms: _6  and  _7
REMARK    5  A    between atoms: _17  and  _19
REMARK    6  A    between atoms: _19  and  _20
REMARK    7  A    between atoms: _19  and  _22
REMARK    8  A    between atoms: _22  and  _23
REMARK    9  A    between atoms: _28  and  _29
REMARK   10  A    between atoms: _31  and  _33
REMARK   11  A    between atoms: _33  and  _34
REMARK   12  A    between atoms: _33  and  _36
REMARK   13  A    between atoms: _36  and  _37
REMARK   14  A    between atoms: _40  and  _41
REMARK   15  A    between atoms: _46  and  _48
REMARK   16  A    between atoms: _48  and  _49
REMARK   17  A    between atoms: _48  and  _51
REMARK   18  A    between atoms: _51  and  _52
REMARK   19  A    between atoms: _57  and  _59
REMARK   20  A    between atoms: _59  and  _60
REMARK   21  A    between atoms: _59  and  _62
REMARK   22  A    between atoms: _62  and  _63
REMARK   23  A    between atoms: _68  and  _70
REMARK   24  A    between atoms: _70  and  _71
REMARK   25  A    between atoms: _74  and  _76
REMARK   26  A    between atoms: _76  and  _77
REMARK   27  A    between atoms: _76  and  _79
REMARK   28  A    between atoms: _79  and  _80
REMARK   29  A    between atoms: _85  and  _87
REMARK   30  A    between atoms: _87  and  _88
REMARK   31  A    between atoms: _87  and  _90
REMARK   32  A    between atoms: _90  and  _91
REMARK   33  A    between atoms: _94  and  _96
REMARK   34  A    between atoms: _96  and  _97
REMARK   35  A    between atoms: _96  and  _99
REMARK   36  A    between atoms: _99  and  _100
REMARK   37  A    between atoms: _100  and  _101
REMARK   38  A    between atoms: _106  and  _108
REMARK   39  A    between atoms: _108  and  _109
REMARK   40  A    between atoms: _108  and  _111
REMARK   41  A    between atoms: _111  and  _112
REMARK   42  A    between atoms: _118  and  _120
REMARK   43  A    between atoms: _131  and  _134
REMARK   44  A    between atoms: _134  and  _135
REMARK   45  A    between atoms: _143  and  _144
REMARK   46  A    between atoms: _152  and  _154
REMARK   47  A    between atoms: _154  and  _155
REMARK   48  A    between atoms: _154  and  _157
REMARK   49  A    between atoms: _157  and  _158
REMARK   50  A    between atoms: _158  and  _159
REMARK   51  A    between atoms: _162  and  _164
REMARK   52  A    between atoms: _164  and  _165
REMARK   53  A    between atoms: _164  and  _167
REMARK   54  A    between atoms: _167  and  _168
REMARK   55  A    between atoms: _173  and  _175
REMARK   56  A    between atoms: _175  and  _176
REMARK   57  A    between atoms: _175  and  _178
REMARK   58  A    between atoms: _178  and  _179
REMARK   59  A    between atoms: _179  and  _180
REMARK   60  A    between atoms: _183  and  _185
REMARK   61  A    between atoms: _185  and  _186
REMARK   62  A    between atoms: _185  and  _188
REMARK   63  A    between atoms: _188  and  _189
REMARK   64  A    between atoms: _192  and  _194
REMARK   65  A    between atoms: _194  and  _195
REMARK   66  A    between atoms: _194  and  _197
REMARK   67  A    between atoms: _197  and  _198
REMARK   68  A    between atoms: _199  and  ZN_419
REMARK   69  A    between atoms: _203  and  _205
REMARK   70  A    between atoms: _205  and  _206
REMARK   71  A    between atoms: _205  and  _208
REMARK   72  A    between atoms: _208  and  _209
REMARK   73  A    between atoms: _212  and  _214
REMARK   74  A    between atoms: _214  and  _215
REMARK   75  A    between atoms: _214  and  _217
REMARK   76  A    between atoms: _220  and  _222
REMARK   77  A    between atoms: _222  and  _223
REMARK   78  A    between atoms: _222  and  _225
REMARK   79  A    between atoms: _225  and  _226
REMARK   80  A    between atoms: _231  and  _233
REMARK   81  A    between atoms: _233  and  _234
REMARK   82  A    between atoms: _233  and  _236
REMARK   83  A    between atoms: _236  and  _237
REMARK   84  A    between atoms: _243  and  _245
REMARK   85  A    between atoms: _245  and  _246
REMARK   86  A    between atoms: _245  and  _248
REMARK   87  A    between atoms: _251  and  _253
REMARK   88  A    between atoms: _253  and  _254
REMARK   89  A    between atoms: _253  and  _256
REMARK   90  A    between atoms: _256  and  _257
REMARK   91  A    between atoms: _260  and  _262
REMARK   92  A    between atoms: _262  and  _263
REMARK   93  A    between atoms: _266  and  _268
REMARK   94  A    between atoms: _268  and  _269
REMARK   95  A    between atoms: _268  and  _271
REMARK   96  A    between atoms: _274  and  _276
REMARK   97  A    between atoms: _276  and  _277
REMARK   98  A    between atoms: _276  and  _279
REMARK   99  A    between atoms: _279  and  _280
REMARK  100  A    between atoms: _283  and  _285
REMARK  101  A    between atoms: _285  and  _286
REMARK  102  A    between atoms: _288  and  _290
REMARK  103  A    between atoms: _290  and  _291
REMARK  104  A    between atoms: _293  and  _295
REMARK  105  A    between atoms: _295  and  _296
REMARK  106  A    between atoms: _295  and  _298
REMARK  107  A    between atoms: _298  and  _299
REMARK  108  A    between atoms: _301  and  _303
REMARK  109  A    between atoms: _303  and  _304
REMARK  110  A    between atoms: _303  and  _306
REMARK  111  A    between atoms: _306  and  _307
REMARK  112  A    between atoms: _310  and  _312
REMARK  113  A    between atoms: _312  and  _313
REMARK  114  A    between atoms: _312  and  _315
REMARK  115  A    between atoms: _315  and  _316
REMARK  116  A    between atoms: _319  and  _321
REMARK  117  A    between atoms: _321  and  _322
REMARK  118  A    between atoms: _321  and  _324
REMARK  119  A    between atoms: _324  and  _325
REMARK  120  A    between atoms: _329  and  _330
REMARK  121  A    between atoms: _336  and  _337
REMARK  122  A    between atoms: _342  and  _344
REMARK  123  A    between atoms: _344  and  _345
REMARK  124  A    between atoms: _344  and  _347
REMARK  125  A    between atoms: _347  and  _348
REMARK  126  A    between atoms: _351  and  _353
REMARK  127  A    between atoms: _353  and  _354
REMARK  128  A    between atoms: _353  and  _356
REMARK  129  A    between atoms: _356  and  _357
REMARK  130  A    between atoms: _360  and  _362
REMARK  131  A    between atoms: _362  and  _363
REMARK  132  A    between atoms: _362  and  _365
REMARK  133  A    between atoms: _367  and  _369
REMARK  134  A    between atoms: _369  and  _370
REMARK  135  A    between atoms: _369  and  _372
REMARK  136  A    between atoms: _375  and  _377
REMARK  137  A    between atoms: _377  and  _378
REMARK  138  A    between atoms: _377  and  _380
REMARK  139  A    between atoms: _380  and  _381
REMARK  140  A    between atoms: _391  and  _393
REMARK  141  A    between atoms: _393  and  _394
REMARK  142  A    between atoms: _393  and  _396
REMARK  143  A    between atoms: _396  and  _397
REMARK  144  A    between atoms: _402  and  _404
REMARK  145  A    between atoms: _404  and  _405
REMARK  146  A    between atoms: _404  and  _407
REMARK  147  A    between atoms: _407  and  _408
REMARK  148  A    between atoms: _408  and  _409
REMARK  149  A    between atoms: _409  and  _410
REMARK                            x       y       z     vdW  Elec       q    Type
REMARK                         _______ _______ _______ _____ _____    ______ ____
ROOT
ATOM      1  C   UNK A   4      10.911  -1.408  10.245  0.00  0.00    +0.000 C 
ATOM      2  C   UNK A   4      10.823  -2.714  11.051  0.00  0.00    +0.000 C 
ATOM      3  O   UNK A   4      10.149  -2.755  12.084  0.00  0.00    +0.000 OA
ATOM      4  N   VAL A   5      11.502  -3.770  10.595  0.00  0.00    +0.000 N 
ATOM      5  CA  VAL A   5      11.512  -5.028  11.326  0.00  0.00    +0.000 C 
ATOM      6  C   VAL A   5      12.946  -5.508  11.499  0.00  0.00    +0.000 C 
ATOM      7  N   UNK A   6      13.158  -6.445  12.449  0.00  0.00    +0.000 N 
ATOM      8  H   UNK A   6      12.366  -6.651  13.091  0.00  0.00    +0.000 HD
ATOM      9  C   UNK A   6      14.388  -7.194  12.661  0.00  0.00    +0.000 C 
ATOM     10  C   UNK A   6      15.017  -6.922  14.037  0.00  0.00    +0.000 C 
ATOM     11  C   UNK A   6      15.266  -5.460  14.307  0.00  0.00    +0.000 A 
ATOM     12  C   UNK A   6      14.442  -4.480  14.758  0.00  0.00    +0.000 A 
ATOM     13  N   UNK A   6      15.172  -3.309  14.776  0.00  0.00    +0.000 N 
ATOM     14 ZN   UNK A   6      14.373  -1.585  15.323  0.00  0.00    +0.000 Zn
ATOM     15  N   UNK A   4      13.761  -0.836  13.591  0.00  0.00    +0.000 N 
ATOM     16  C   UNK A   4      13.287   0.399  13.458  0.00  0.00    +0.000 A 
ATOM     17  N   UNK A   4      12.710   0.491  12.274  0.00  0.00    +0.000 NA
ATOM     18  C   UNK A   4      12.927  -0.673  11.571  0.00  0.00    +0.000 A 
ATOM     19  C   UNK A   4      13.548  -1.514  12.418  0.00  0.00    +0.000 A 
ATOM     20  C   UNK A   6      16.392  -3.558  14.336  0.00  0.00    +0.000 A 
ATOM     21  N   UNK A   6      16.461  -4.836  13.958  0.00  0.00    +0.000 NA
ATOM     22  O   VAL A   5      13.853  -5.000  10.815  0.00  0.00    +0.000 OA
ATOM     23  H   VAL A   5      12.032  -3.692   9.703  0.00  0.00    +0.000 HD
ATOM     24  C   UNK A   4      12.358  -0.910  10.196  0.00  0.00    +0.000 C 
ENDROOT
BRANCH  14  25
ATOM     25  N   UNK A   6      12.910  -2.374  16.547  0.00  0.00    +0.000 N 
ATOM     26  C   UNK A   6      13.184  -3.212  17.535  0.00  0.00    +0.000 A 
ATOM     27  N   UNK A   6      12.052  -3.511  18.167  0.00  0.00    +0.000 NA
ATOM     28  C   UNK A   6      11.021  -2.785  17.596  0.00  0.00    +0.000 A 
ATOM     29  C   UNK A   6      11.571  -2.037  16.592  0.00  0.00    +0.000 A 
BRANCH  29  30
ATOM     30  C   UNK A   6      10.914  -1.111  15.642  0.00  0.00    +0.000 C 
BRANCH  30  31
ATOM     31  C   UNK A   6       9.367  -1.350  15.562  0.00  0.00    +0.000 C 
BRANCH  31  32
ATOM     32  C   UNK A   6       8.683  -0.191  14.878  0.00  0.00    +0.000 C 
ATOM     33  N   UNK A   4       7.697   0.410  15.555  0.00  0.00    +0.000 N 
ATOM     34  H   UNK A   4       7.377   0.011  16.461  0.00  0.00    +0.000 HD
ATOM     35  O   UNK A   6       9.042   0.165  13.744  0.00  0.00    +0.000 OA
BRANCH  33  36
ATOM     36  C   UNK A   4       7.053   1.645  15.024  0.00  0.00    +0.000 C 
BRANCH  36  37
ATOM     37  C   UNK A   4       7.643   2.800  15.817  0.00  0.00    +0.000 C 
ATOM     38  O   UNK A   4       7.476   2.835  17.054  0.00  0.00    +0.000 OA
ATOM     39  N   VAL A   5       8.383   3.670  15.147  0.00  0.00    +0.000 N 
ATOM     40  H   VAL A   5       8.318   3.698  14.109  0.00  0.00    +0.000 HD
BRANCH  39  41
ATOM     41  CA  VAL A   5       9.287   4.590  15.828  0.00  0.00    +0.000 C 
BRANCH  41  42
ATOM     42  C   VAL A   5       8.597   5.955  15.826  0.00  0.00    +0.000 C 
ATOM     43  N   UNK A   6       8.498   6.573  17.010  0.00  0.00    +0.000 N 
ATOM     44  H   UNK A   6       8.905   6.126  17.856  0.00  0.00    +0.000 HD
ATOM     45  O   VAL A   5       8.196   6.441  14.727  0.00  0.00    +0.000 OA
BRANCH  43  46
ATOM     46  C   UNK A   6       7.820   7.879  17.133  0.00  0.00    +0.000 C 
BRANCH  46  47
ATOM     47  C   UNK A   6       8.690   8.888  17.901  0.00  0.00    +0.000 C 
ATOM     48  O   UNK A   6       9.442   8.490  18.789  0.00  0.00    +0.000 OA
ENDBRANCH  46  47
BRANCH  46  49
ATOM     49  C   UNK A   6       6.501   7.752  17.912  0.00  0.00    +0.000 C 
BRANCH  49  50
ATOM     50  C   UNK A   6       5.626   6.572  17.505  0.00  0.00    +0.000 A 
ATOM     51  N   UNK A   6       5.976   5.254  17.718  0.00  0.00    +0.000 NA
ATOM     52  C   UNK A   6       4.987   4.463  17.290  0.00  0.00    +0.000 A 
ATOM     53  N   UNK A   6       4.020   5.223  16.797  0.00  0.00    +0.000 NA
ATOM     54  C   UNK A   6       4.385   6.549  16.939  0.00  0.00    +0.000 A 
ENDBRANCH  49  50
ENDBRANCH  46  49
ENDBRANCH  43  46
ENDBRANCH  41  42
BRANCH  41  55
ATOM     55  CB  VAL A   5      10.576   4.737  15.025  0.00  0.00    +0.000 C 
ATOM     56  CG2 VAL A   5      11.536   5.790  15.688  0.00  0.00    +0.000 C 
ATOM     57  CG1 VAL A   5      11.265   3.388  14.730  0.00  0.00    +0.000 C 
ENDBRANCH  41  55
ENDBRANCH  39  41
ENDBRANCH  36  37
BRANCH  36  58
ATOM     58  C   UNK A   4       5.538   1.522  15.218  0.00  0.00    +0.000 C 
BRANCH  58  59
ATOM     59  C   UNK A   4       4.948   0.429  14.304  0.00  0.00    +0.000 C 
ATOM     60  C   UNK A   4       4.147  -0.510  15.272  0.00  0.00    +0.000 C 
ATOM     61  C   UNK A   4       4.048   1.142  13.264  0.00  0.00    +0.000 C 
ENDBRANCH  58  59
ENDBRANCH  36  58
ENDBRANCH  33  36
ENDBRANCH  31  32
BRANCH  31  62
ATOM     62  N   UNK A   6       9.119  -2.571  14.804  0.00  0.00    +0.000 N 
ATOM     63  C   LEU A   2       8.563  -3.661  15.327  0.00  0.00    +0.000 C 
ATOM     64  O   LEU A   2       8.204  -3.739  16.489  0.00  0.00    +0.000 OA
ATOM     65  H   UNK A   6       9.391  -2.591  13.801  0.00  0.00    +0.000 HD
BRANCH  63  66
ATOM     66  CA  LEU A   2       8.318  -4.812  14.325  0.00  0.00    +0.000 C 
BRANCH  66  67
ATOM     67  N   LEU A   2       8.694  -6.085  14.942  0.00  0.00    +0.000 N 
ATOM     68  H   LEU A   2       7.977  -6.578  15.511  0.00  0.00    +0.000 HD
ATOM     69  C   GLU A   1       9.894  -6.655  14.824  0.00  0.00    +0.000 C 
ATOM     70  O   GLU A   1      10.820  -6.198  14.096  0.00  0.00    +0.000 OA
BRANCH  69  71
ATOM     71  CA  GLU A   1      10.060  -7.925  15.637  0.00  0.00    +0.000 C 
BRANCH  71  72
ATOM     72  N   GLU A   1      10.624  -8.979  14.841  0.00  0.00    +0.000 NA
ATOM     73  H   GLU A   1      11.326  -8.734  14.114  0.00  0.00    +0.000 HD
ENDBRANCH  71  72
BRANCH  71  74
ATOM     74  CB  GLU A   1      10.922  -7.732  16.928  0.00  0.00    +0.000 C 
BRANCH  74  75
ATOM     75  CG  GLU A   1      10.465  -6.620  17.881  0.00  0.00    +0.000 C 
BRANCH  75  76
ATOM     76  CD  GLU A   1      11.342  -6.546  19.145  0.00  0.00    +0.000 C 
ATOM     77  OE2 GLU A   1      11.381  -5.443  19.785  0.00  0.00    +0.000 OA
ATOM     78  OE1 GLU A   1      11.978  -7.565  19.474  0.00  0.00    +0.000 OA
ENDBRANCH  75  76
ENDBRANCH  74  75
ENDBRANCH  71  74
ENDBRANCH  69  71
ENDBRANCH  66  67
BRANCH  66  79
ATOM     79  CB  LEU A   2       6.805  -4.841  13.893  0.00  0.00    +0.000 C 
BRANCH  79  80
ATOM     80  CG  LEU A   2       6.093  -3.504  13.570  0.00  0.00    +0.000 C 
ATOM     81  CD2 LEU A   2       4.598  -3.909  13.428  0.00  0.00    +0.000 C 
ATOM     82  CD1 LEU A   2       6.654  -2.909  12.236  0.00  0.00    +0.000 C 
ENDBRANCH  79  80
ENDBRANCH  66  79
ENDBRANCH  63  66
ENDBRANCH  31  62
ENDBRANCH  30  31
ENDBRANCH  29  30
ENDBRANCH  14  25
BRANCH   1  84
ATOM     83  C   UNK A   3       9.512   0.564  10.210  0.00  0.00    +0.000 C 
ATOM     84  N   UNK A   4      10.101  -0.404  10.892  0.00  0.00    +0.000 N 
ATOM     85  H   UNK A   4       9.977  -0.443  11.924  0.00  0.00    +0.000 HD
ATOM     86  O   UNK A   3       9.707   0.707   9.016  0.00  0.00    +0.000 OA
BRANCH  83  87
ATOM     87  C   UNK A   3       8.547   1.477  10.969  0.00  0.00    +0.000 C 
BRANCH  87  90
ATOM     88  C   LEU A   2       8.675   3.871  11.074  0.00  0.00    +0.000 C 
ATOM     89  O   LEU A   2       8.634   3.903  12.302  0.00  0.00    +0.000 OA
ATOM     90  N   UNK A   3       8.436   2.766  10.365  0.00  0.00    +0.000 N 
ATOM     91  H   UNK A   3       8.166   2.844   9.364  0.00  0.00    +0.000 HD
BRANCH  88  92
ATOM     92  CA  LEU A   2       8.960   5.100  10.317  0.00  0.00    +0.000 C 
BRANCH  92  94
ATOM     93  C   GLU A   1       8.480   7.508  10.568  0.00  0.00    +0.000 C 
ATOM     94  N   LEU A   2       8.625   6.308  11.131  0.00  0.00    +0.000 N 
ATOM     95  H   LEU A   2       8.502   6.210  12.159  0.00  0.00    +0.000 HD
ATOM     96  O   GLU A   1       8.576   7.661   9.332  0.00  0.00    +0.000 OA
BRANCH  93  97
ATOM     97  CA  GLU A   1       8.179   8.702  11.524  0.00  0.00    +0.000 C 
BRANCH  97  98
ATOM     98  CB  GLU A   1       9.509   9.345  12.071  0.00  0.00    +0.000 C 
ATOM     99  CG2 GLU A   1      10.178   8.506  13.125  0.00  0.00    +0.000 C 
BRANCH  98 100
ATOM    100  CG1 GLU A   1      10.504   9.558  10.909  0.00  0.00    +0.000 C 
ATOM    101  CD1 GLU A   1      11.624  10.634  11.280  0.00  0.00    +0.000 C 
ENDBRANCH  98 100
ENDBRANCH  97  98
BRANCH  97 102
ATOM    102  N   GLU A   1       7.318   8.328  12.624  0.00  0.00    +0.000 NA
ATOM    103  H   GLU A   1       7.687   7.718  13.382  0.00  0.00    +0.000 HD
ENDBRANCH  97 102
ENDBRANCH  93  97
ENDBRANCH  92  94
BRANCH  92 104
ATOM    104  CB  LEU A   2      10.440   5.074   9.827  0.00  0.00    +0.000 C 
BRANCH 104 105
ATOM    105  CG  LEU A   2      11.566   5.218  10.920  0.00  0.00    +0.000 C 
BRANCH 105 106
ATOM    106  CD  LEU A   2      12.219   3.895  11.293  0.00  0.00    +0.000 C 
ATOM    107  NE2 LEU A   2      13.443   3.970  11.843  0.00  0.00    +0.000 N 
ATOM    108 HE21 LEU A   2      13.941   3.101  12.124  0.00  0.00    +0.000 HD
ATOM    109 HE22 LEU A   2      13.892   4.897  11.988  0.00  0.00    +0.000 HD
ATOM    110  OE1 LEU A   2      11.625   2.803  11.093  0.00  0.00    +0.000 OA
ENDBRANCH 105 106
ENDBRANCH 104 105
ENDBRANCH  92 104
ENDBRANCH  88  92
ENDBRANCH  87  90
BRANCH  87 111
ATOM    111  C   UNK A   3       7.166   0.844  11.239  0.00  0.00    +0.000 C 
BRANCH 111 112
ATOM    112  C   UNK A   3       6.453   0.347  10.010  0.00  0.00    +0.000 A 
ATOM    113  C   UNK A   3       5.277   1.017   9.553  0.00  0.00    +0.000 A 
ATOM    114  C   UNK A   3       4.589   0.542   8.466  0.00  0.00    +0.000 A 
ATOM    115  C   UNK A   3       5.028  -0.623   7.800  0.00  0.00    +0.000 A 
ATOM    116  C   UNK A   3       6.189  -1.294   8.228  0.00  0.00    +0.000 A 
ATOM    117  C   UNK A   3       6.861  -0.837   9.362  0.00  0.00    +0.000 A 
ENDBRANCH 111 112
ENDBRANCH  87 111
ENDBRANCH  83  87
ENDBRANCH   1  84
BRANCH   9 118
ATOM    118  C   UNK A   6      13.959  -8.665  12.515  0.00  0.00    +0.000 C 
ATOM    119  O   UNK A   6      12.899  -9.022  13.056  0.00  0.00    +0.000 OA
ENDBRANCH   9 118
BRANCH   5 120
ATOM    120  CB  VAL A   5      10.796  -6.097  10.445  0.00  0.00    +0.000 C 
BRANCH 120 121
ATOM    121  CG  VAL A   5       9.349  -5.814  10.148  0.00  0.00    +0.000 A 
ATOM    122  CD2 VAL A   5       8.346  -6.423  10.916  0.00  0.00    +0.000 A 
ATOM    123  CE2 VAL A   5       6.996  -6.209  10.584  0.00  0.00    +0.000 A 
ATOM    124  CZ  VAL A   5       6.658  -5.406   9.484  0.00  0.00    +0.000 A 
ATOM    125  CE1 VAL A   5       7.600  -4.812   8.734  0.00  0.00    +0.000 A 
ATOM    126  CD1 VAL A   5       8.969  -5.030   9.050  0.00  0.00    +0.000 A 
ENDBRANCH 120 121
ENDBRANCH   5 120
TORSDOF 42
REMARK  Name = ../refined-set-2016/3s77/3s77_pocket.pdb
REMARK  149 active torsions:
REMARK  status: ('A' for Active; 'I' for Inactive)
REMARK    1  A    between atoms: _1  and  _3
REMARK    2  A    between atoms: _3  and  _4
REMARK    3  A    between atoms: _3  and  _6
REMARK    4  A    between atoms: _6  and  _7
REMARK    5  A    between atoms: _17  and  _19
REMARK    6  A    between atoms: _19  and  _20
REMARK    7  A    between atoms: _19  and  _22
REMARK    8  A    between atoms: _22  and  _23
REMARK    9  A    between atoms: _28  and  _29
REMARK   10  A    between atoms: _31  and  _33
REMARK   11  A    between atoms: _33  and  _34
REMARK   12  A    between atoms: _33  and  _36
REMARK   13  A    between atoms: _36  and  _37
REMARK   14  A    between atoms: _40  and  _41
REMARK   15  A    between atoms: _46  and  _48
REMARK   16  A    between atoms: _48  and  _49
REMARK   17  A    between atoms: _48  and  _51
REMARK   18  A    between atoms: _51  and  _52
REMARK   19  A    between atoms: _57  and  _59
REMARK   20  A    between atoms: _59  and  _60
REMARK   21  A    between atoms: _59  and  _62
REMARK   22  A    between atoms: _62  and  _63
REMARK   23  A    between atoms: _68  and  _70
REMARK   24  A    between atoms: _70  and  _71
REMARK   25  A    between atoms: _74  and  _76
REMARK   26  A    between atoms: _76  and  _77
REMARK   27  A    between atoms: _76  and  _79
REMARK   28  A    between atoms: _79  and  _80
REMARK   29  A    between atoms: _85  and  _87
REMARK   30  A    between atoms: _87  and  _88
REMARK   31  A    between atoms: _87  and  _90
REMARK   32  A    between atoms: _90  and  _91
REMARK   33  A    between atoms: _94  and  _96
REMARK   34  A    between atoms: _96  and  _97
REMARK   35  A    between atoms: _96  and  _99
REMARK   36  A    between atoms: _99  and  _100
REMARK   37  A    between atoms: _100  and  _101
REMARK   38  A    between atoms: _106  and  _108
REMARK   39  A    between atoms: _108  and  _109
REMARK   40  A    between atoms: _108  and  _111
REMARK   41  A    between atoms: _111  and  _112
REMARK   42  A    between atoms: _118  and  _120
REMARK   43  A    between atoms: _131  and  _134
REMARK   44  A    between atoms: _134  and  _135
REMARK   45  A    between atoms: _143  and  _144
REMARK   46  A    between atoms: _152  and  _154
REMARK   47  A    between atoms: _154  and  _155
REMARK   48  A    between atoms: _154  and  _157
REMARK   49  A    between atoms: _157  and  _158
REMARK   50  A    between atoms: _158  and  _159
REMARK   51  A    between atoms: _162  and  _164
REMARK   52  A    between atoms: _164  and  _165
REMARK   53  A    between atoms: _164  and  _167
REMARK   54  A    between atoms: _167  and  _168
REMARK   55  A    between atoms: _173  and  _175
REMARK   56  A    between atoms: _175  and  _176
REMARK   57  A    between atoms: _175  and  _178
REMARK   58  A    between atoms: _178  and  _179
REMARK   59  A    between atoms: _179  and  _180
REMARK   60  A    between atoms: _183  and  _185
REMARK   61  A    between atoms: _185  and  _186
REMARK   62  A    between atoms: _185  and  _188
REMARK   63  A    between atoms: _188  and  _189
REMARK   64  A    between atoms: _192  and  _194
REMARK   65  A    between atoms: _194  and  _195
REMARK   66  A    between atoms: _194  and  _197
REMARK   67  A    between atoms: _197  and  _198
REMARK   68  A    between atoms: _199  and  ZN_419
REMARK   69  A    between atoms: _203  and  _205
REMARK   70  A    between atoms: _205  and  _206
REMARK   71  A    between atoms: _205  and  _208
REMARK   72  A    between atoms: _208  and  _209
REMARK   73  A    between atoms: _212  and  _214
REMARK   74  A    between atoms: _214  and  _215
REMARK   75  A    between atoms: _214  and  _217
REMARK   76  A    between atoms: _220  and  _222
REMARK   77  A    between atoms: _222  and  _223
REMARK   78  A    between atoms: _222  and  _225
REMARK   79  A    between atoms: _225  and  _226
REMARK   80  A    between atoms: _231  and  _233
REMARK   81  A    between atoms: _233  and  _234
REMARK   82  A    between atoms: _233  and  _236
REMARK   83  A    between atoms: _236  and  _237
REMARK   84  A    between atoms: _243  and  _245
REMARK   85  A    between atoms: _245  and  _246
REMARK   86  A    between atoms: _245  and  _248
REMARK   87  A    between atoms: _251  and  _253
REMARK   88  A    between atoms: _253  and  _254
REMARK   89  A    between atoms: _253  and  _256
REMARK   90  A    between atoms: _256  and  _257
REMARK   91  A    between atoms: _260  and  _262
REMARK   92  A    between atoms: _262  and  _263
REMARK   93  A    between atoms: _266  and  _268
REMARK   94  A    between atoms: _268  and  _269
REMARK   95  A    between atoms: _268  and  _271
REMARK   96  A    between atoms: _274  and  _276
REMARK   97  A    between atoms: _276  and  _277
REMARK   98  A    between atoms: _276  and  _279
REMARK   99  A    between atoms: _279  and  _280
REMARK  100  A    between atoms: _283  and  _285
REMARK  101  A    between atoms: _285  and  _286
REMARK  102  A    between atoms: _288  and  _290
REMARK  103  A    between atoms: _290  and  _291
REMARK  104  A    between atoms: _293  and  _295
REMARK  105  A    between atoms: _295  and  _296
REMARK  106  A    between atoms: _295  and  _298
REMARK  107  A    between atoms: _298  and  _299
REMARK  108  A    between atoms: _301  and  _303
REMARK  109  A    between atoms: _303  and  _304
REMARK  110  A    between atoms: _303  and  _306
REMARK  111  A    between atoms: _306  and  _307
REMARK  112  A    between atoms: _310  and  _312
REMARK  113  A    between atoms: _312  and  _313
REMARK  114  A    between atoms: _312  and  _315
REMARK  115  A    between atoms: _315  and  _316
REMARK  116  A    between atoms: _319  and  _321
REMARK  117  A    between atoms: _321  and  _322
REMARK  118  A    between atoms: _321  and  _324
REMARK  119  A    between atoms: _324  and  _325
REMARK  120  A    between atoms: _329  and  _330
REMARK  121  A    between atoms: _336  and  _337
REMARK  122  A    between atoms: _342  and  _344
REMARK  123  A    between atoms: _344  and  _345
REMARK  124  A    between atoms: _344  and  _347
REMARK  125  A    between atoms: _347  and  _348
REMARK  126  A    between atoms: _351  and  _353
REMARK  127  A    between atoms: _353  and  _354
REMARK  128  A    between atoms: _353  and  _356
REMARK  129  A    between atoms: _356  and  _357
REMARK  130  A    between atoms: _360  and  _362
REMARK  131  A    between atoms: _362  and  _363
REMARK  132  A    between atoms: _362  and  _365
REMARK  133  A    between atoms: _367  and  _369
REMARK  134  A    between atoms: _369  and  _370
REMARK  135  A    between atoms: _369  and  _372
REMARK  136  A    between atoms: _375  and  _377
REMARK  137  A    between atoms: _377  and  _378
REMARK  138  A    between atoms: _377  and  _380
REMARK  139  A    between atoms: _380  and  _381
REMARK  140  A    between atoms: _391  and  _393
REMARK  141  A    between atoms: _393  and  _394
REMARK  142  A    between atoms: _393  and  _396
REMARK  143  A    between atoms: _396  and  _397
REMARK  144  A    between atoms: _402  and  _404
REMARK  145  A    between atoms: _404  and  _405
REMARK  146  A    between atoms: _404  and  _407
REMARK  147  A    between atoms: _407  and  _408
REMARK  148  A    between atoms: _408  and  _409
REMARK  149  A    between atoms: _409  and  _410
REMARK                            x       y       z     vdW  Elec       q    Type
REMARK                         _______ _______ _______ _____ _____    ______ ____
ROOT
ATOM      1  C   GLU A   1      15.174  -8.355  21.020  0.00  0.00    +0.238 C 
ATOM      2  O   GLU A   1      15.944  -8.902  21.793  0.00  0.00    -0.274 OA
ATOM      3  N   HIS A   2      13.939  -7.960  21.415  0.00  0.00    -0.298 N 
ATOM      4  H   HIS A   2      13.301  -7.454  20.768  0.00  0.00    +0.150 HD
ENDROOT
BRANCH   1   5
ATOM      5  CA  GLU A   1      15.541  -8.185  19.554  0.00  0.00    +0.145 C 
BRANCH   5   6
ATOM      6  N   GLU A   1      14.564  -8.902  18.725  0.00  0.00    -0.238 NA
ATOM      7  H   GLU A   1      13.713  -8.388  18.421  0.00  0.00    +0.142 HD
ENDBRANCH   5   6
BRANCH   5   8
ATOM      8  CB  GLU A   1      15.553  -6.690  19.084  0.00  0.00    +0.038 C 
BRANCH   8   9
ATOM      9  CG  GLU A   1      16.150  -6.579  17.657  0.00  0.00    +0.116 C 
BRANCH   9  10
ATOM     10  CD  GLU A   1      16.742  -5.205  17.408  0.00  0.00    +0.365 C 
ATOM     11  OE2 GLU A   1      16.064  -4.147  17.721  0.00  0.00    -0.246 OA
ATOM     12  OE1 GLU A   1      17.918  -5.199  16.956  0.00  0.00    -0.246 OA
ENDBRANCH   9  10
ENDBRANCH   8   9
ENDBRANCH   5   8
ENDBRANCH   1   5
BRANCH   3  13
ATOM     13  CA  HIS A   2      13.550  -8.266  22.753  0.00  0.00    +0.143 C 
BRANCH  13  14
ATOM     14  C   HIS A   2      13.222  -9.741  22.799  0.00  0.00    +0.227 C 
ATOM     15  O   HIS A   2      12.903 -10.347  21.753  0.00  0.00    -0.286 OA
ENDBRANCH  13  14
BRANCH  13  16
ATOM     16  CB  HIS A   2      12.312  -7.444  23.141  0.00  0.00    +0.075 C 
BRANCH  16  17
ATOM     17  CG  HIS A   2      12.628  -6.002  23.328  0.00  0.00    +0.082 A 
ATOM     18  CD2 HIS A   2      13.043  -5.314  24.423  0.00  0.00    +0.115 A 
ATOM     19  NE2 HIS A   2      13.241  -4.019  24.032  0.00  0.00    -0.221 NA
ATOM     20  CE1 HIS A   2      13.000  -3.914  22.725  0.00  0.00    +0.199 A 
ATOM     21  ND1 HIS A   2      12.620  -5.106  22.287  0.00  0.00    -0.227 NA
ENDBRANCH  16  17
ENDBRANCH  13  16
ENDBRANCH   3  13
TORSDOF 9
REMARK  Name = ../refined-set-2016/3s77/3s77_pocket.pdb
REMARK  149 active torsions:
REMARK  status: ('A' for Active; 'I' for Inactive)
REMARK    1  A    between atoms: _1  and  _3
REMARK    2  A    between atoms: _3  and  _4
REMARK    3  A    between atoms: _3  and  _6
REMARK    4  A    between atoms: _6  and  _7
REMARK    5  A    between atoms: _17  and  _19
REMARK    6  A    between atoms: _19  and  _20
REMARK    7  A    between atoms: _19  and  _22
REMARK    8  A    between atoms: _22  and  _23
REMARK    9  A    between atoms: _28  and  _29
REMARK   10  A    between atoms: _31  and  _33
REMARK   11  A    between atoms: _33  and  _34
REMARK   12  A    between atoms: _33  and  _36
REMARK   13  A    between atoms: _36  and  _37
REMARK   14  A    between atoms: _40  and  _41
REMARK   15  A    between atoms: _46  and  _48
REMARK   16  A    between atoms: _48  and  _49
REMARK   17  A    between atoms: _48  and  _51
REMARK   18  A    between atoms: _51  and  _52
REMARK   19  A    between atoms: _57  and  _59
REMARK   20  A    between atoms: _59  and  _60
REMARK   21  A    between atoms: _59  and  _62
REMARK   22  A    between atoms: _62  and  _63
REMARK   23  A    between atoms: _68  and  _70
REMARK   24  A    between atoms: _70  and  _71
REMARK   25  A    between atoms: _74  and  _76
REMARK   26  A    between atoms: _76  and  _77
REMARK   27  A    between atoms: _76  and  _79
REMARK   28  A    between atoms: _79  and  _80
REMARK   29  A    between atoms: _85  and  _87
REMARK   30  A    between atoms: _87  and  _88
REMARK   31  A    between atoms: _87  and  _90
REMARK   32  A    between atoms: _90  and  _91
REMARK   33  A    between atoms: _94  and  _96
REMARK   34  A    between atoms: _96  and  _97
REMARK   35  A    between atoms: _96  and  _99
REMARK   36  A    between atoms: _99  and  _100
REMARK   37  A    between atoms: _100  and  _101
REMARK   38  A    between atoms: _106  and  _108
REMARK   39  A    between atoms: _108  and  _109
REMARK   40  A    between atoms: _108  and  _111
REMARK   41  A    between atoms: _111  and  _112
REMARK   42  A    between atoms: _118  and  _120
REMARK   43  A    between atoms: _131  and  _134
REMARK   44  A    between atoms: _134  and  _135
REMARK   45  A    between atoms: _143  and  _144
REMARK   46  A    between atoms: _152  and  _154
REMARK   47  A    between atoms: _154  and  _155
REMARK   48  A    between atoms: _154  and  _157
REMARK   49  A    between atoms: _157  and  _158
REMARK   50  A    between atoms: _158  and  _159
REMARK   51  A    between atoms: _162  and  _164
REMARK   52  A    between atoms: _164  and  _165
REMARK   53  A    between atoms: _164  and  _167
REMARK   54  A    between atoms: _167  and  _168
REMARK   55  A    between atoms: _173  and  _175
REMARK   56  A    between atoms: _175  and  _176
REMARK   57  A    between atoms: _175  and  _178
REMARK   58  A    between atoms: _178  and  _179
REMARK   59  A    between atoms: _179  and  _180
REMARK   60  A    between atoms: _183  and  _185
REMARK   61  A    between atoms: _185  and  _186
REMARK   62  A    between atoms: _185  and  _188
REMARK   63  A    between atoms: _188  and  _189
REMARK   64  A    between atoms: _192  and  _194
REMARK   65  A    between atoms: _194  and  _195
REMARK   66  A    between atoms: _194  and  _197
REMARK   67  A    between atoms: _197  and  _198
REMARK   68  A    between atoms: _199  and  ZN_419
REMARK   69  A    between atoms: _203  and  _205
REMARK   70  A    between atoms: _205  and  _206
REMARK   71  A    between atoms: _205  and  _208
REMARK   72  A    between atoms: _208  and  _209
REMARK   73  A    between atoms: _212  and  _214
REMARK   74  A    between atoms: _214  and  _215
REMARK   75  A    between atoms: _214  and  _217
REMARK   76  A    between atoms: _220  and  _222
REMARK   77  A    between atoms: _222  and  _223
REMARK   78  A    between atoms: _222  and  _225
REMARK   79  A    between atoms: _225  and  _226
REMARK   80  A    between atoms: _231  and  _233
REMARK   81  A    between atoms: _233  and  _234
REMARK   82  A    between atoms: _233  and  _236
REMARK   83  A    between atoms: _236  and  _237
REMARK   84  A    between atoms: _243  and  _245
REMARK   85  A    between atoms: _245  and  _246
REMARK   86  A    between atoms: _245  and  _248
REMARK   87  A    between atoms: _251  and  _253
REMARK   88  A    between atoms: _253  and  _254
REMARK   89  A    between atoms: _253  and  _256
REMARK   90  A    between atoms: _256  and  _257
REMARK   91  A    between atoms: _260  and  _262
REMARK   92  A    between atoms: _262  and  _263
REMARK   93  A    between atoms: _266  and  _268
REMARK   94  A    between atoms: _268  and  _269
REMARK   95  A    between atoms: _268  and  _271
REMARK   96  A    between atoms: _274  and  _276
REMARK   97  A    between atoms: _276  and  _277
REMARK   98  A    between atoms: _276  and  _279
REMARK   99  A    between atoms: _279  and  _280
REMARK  100  A    between atoms: _283  and  _285
REMARK  101  A    between atoms: _285  and  _286
REMARK  102  A    between atoms: _288  and  _290
REMARK  103  A    between atoms: _290  and  _291
REMARK  104  A    between atoms: _293  and  _295
REMARK  105  A    between atoms: _295  and  _296
REMARK  106  A    between atoms: _295  and  _298
REMARK  107  A    between atoms: _298  and  _299
REMARK  108  A    between atoms: _301  and  _303
REMARK  109  A    between atoms: _303  and  _304
REMARK  110  A    between atoms: _303  and  _306
REMARK  111  A    between atoms: _306  and  _307
REMARK  112  A    between atoms: _310  and  _312
REMARK  113  A    between atoms: _312  and  _313
REMARK  114  A    between atoms: _312  and  _315
REMARK  115  A    between atoms: _315  and  _316
REMARK  116  A    between atoms: _319  and  _321
REMARK  117  A    between atoms: _321  and  _322
REMARK  118  A    between atoms: _321  and  _324
REMARK  119  A    between atoms: _324  and  _325
REMARK  120  A    between atoms: _329  and  _330
REMARK  121  A    between atoms: _336  and  _337
REMARK  122  A    between atoms: _342  and  _344
REMARK  123  A    between atoms: _344  and  _345
REMARK  124  A    between atoms: _344  and  _347
REMARK  125  A    between atoms: _347  and  _348
REMARK  126  A    between atoms: _351  and  _353
REMARK  127  A    between atoms: _353  and  _354
REMARK  128  A    between atoms: _353  and  _356
REMARK  129  A    between atoms: _356  and  _357
REMARK  130  A    between atoms: _360  and  _362
REMARK  131  A    between atoms: _362  and  _363
REMARK  132  A    between atoms: _362  and  _365
REMARK  133  A    between atoms: _367  and  _369
REMARK  134  A    between atoms: _369  and  _370
REMARK  135  A    between atoms: _369  and  _372
REMARK  136  A    between atoms: _375  and  _377
REMARK  137  A    between atoms: _377  and  _378
REMARK  138  A    between atoms: _377  and  _380
REMARK  139  A    between atoms: _380  and  _381
REMARK  140  A    between atoms: _391  and  _393
REMARK  141  A    between atoms: _393  and  _394
REMARK  142  A    between atoms: _393  and  _396
REMARK  143  A    between atoms: _396  and  _397
REMARK  144  A    between atoms: _402  and  _404
REMARK  145  A    between atoms: _404  and  _405
REMARK  146  A    between atoms: _404  and  _407
REMARK  147  A    between atoms: _407  and  _408
REMARK  148  A    between atoms: _408  and  _409
REMARK  149  A    between atoms: _409  and  _410
REMARK                            x       y       z     vdW  Elec       q    Type
REMARK                         _______ _______ _______ _____ _____    ______ ____
ROOT
ATOM      1  CB  PHE A   1      13.385  12.471  13.879  0.00  0.00    +0.051 C 
ENDROOT
BRANCH   1   2
ATOM      2  CG  PHE A   1      14.052  11.176  14.157  0.00  0.00    -0.020 A 
ATOM      3  CD2 PHE A   1      13.380  10.154  14.815  0.00  0.00    -0.004 A 
ATOM      4  CE2 PHE A   1      14.018   8.929  15.071  0.00  0.00    -0.000 A 
ATOM      5  CZ  PHE A   1      15.351   8.734  14.652  0.00  0.00    -0.000 A 
ATOM      6  CE1 PHE A   1      16.016   9.743  13.977  0.00  0.00    -0.000 A 
ATOM      7  CD1 PHE A   1      15.365  10.958  13.740  0.00  0.00    -0.004 A 
ENDBRANCH   1   2
BRANCH   1   8
ATOM      8  CA  PHE A   1      13.547  13.501  15.014  0.00  0.00    +0.137 C 
BRANCH   8   9
ATOM      9  N   PHE A   1      13.025  14.802  14.599  0.00  0.00    -0.239 NA
ATOM     10  H   PHE A   1      12.768  14.932  13.600  0.00  0.00    +0.142 HD
ENDBRANCH   8   9
BRANCH   8  11
ATOM     11  C   PHE A   1      15.014  13.641  15.441  0.00  0.00    +0.224 C 
ATOM     12  O   PHE A   1      15.445  13.084  16.478  0.00  0.00    -0.287 OA
ENDBRANCH   8  11
ENDBRANCH   1   8
TORSDOF 4
REMARK  Name = ../refined-set-2016/3s77/3s77_pocket.pdb
REMARK  149 active torsions:
REMARK  status: ('A' for Active; 'I' for Inactive)
REMARK    1  A    between atoms: _1  and  _3
REMARK    2  A    between atoms: _3  and  _4
REMARK    3  A    between atoms: _3  and  _6
REMARK    4  A    between atoms: _6  and  _7
REMARK    5  A    between atoms: _17  and  _19
REMARK    6  A    between atoms: _19  and  _20
REMARK    7  A    between atoms: _19  and  _22
REMARK    8  A    between atoms: _22  and  _23
REMARK    9  A    between atoms: _28  and  _29
REMARK   10  A    between atoms: _31  and  _33
REMARK   11  A    between atoms: _33  and  _34
REMARK   12  A    between atoms: _33  and  _36
REMARK   13  A    between atoms: _36  and  _37
REMARK   14  A    between atoms: _40  and  _41
REMARK   15  A    between atoms: _46  and  _48
REMARK   16  A    between atoms: _48  and  _49
REMARK   17  A    between atoms: _48  and  _51
REMARK   18  A    between atoms: _51  and  _52
REMARK   19  A    between atoms: _57  and  _59
REMARK   20  A    between atoms: _59  and  _60
REMARK   21  A    between atoms: _59  and  _62
REMARK   22  A    between atoms: _62  and  _63
REMARK   23  A    between atoms: _68  and  _70
REMARK   24  A    between atoms: _70  and  _71
REMARK   25  A    between atoms: _74  and  _76
REMARK   26  A    between atoms: _76  and  _77
REMARK   27  A    between atoms: _76  and  _79
REMARK   28  A    between atoms: _79  and  _80
REMARK   29  A    between atoms: _85  and  _87
REMARK   30  A    between atoms: _87  and  _88
REMARK   31  A    between atoms: _87  and  _90
REMARK   32  A    between atoms: _90  and  _91
REMARK   33  A    between atoms: _94  and  _96
REMARK   34  A    between atoms: _96  and  _97
REMARK   35  A    between atoms: _96  and  _99
REMARK   36  A    between atoms: _99  and  _100
REMARK   37  A    between atoms: _100  and  _101
REMARK   38  A    between atoms: _106  and  _108
REMARK   39  A    between atoms: _108  and  _109
REMARK   40  A    between atoms: _108  and  _111
REMARK   41  A    between atoms: _111  and  _112
REMARK   42  A    between atoms: _118  and  _120
REMARK   43  A    between atoms: _131  and  _134
REMARK   44  A    between atoms: _134  and  _135
REMARK   45  A    between atoms: _143  and  _144
REMARK   46  A    between atoms: _152  and  _154
REMARK   47  A    between atoms: _154  and  _155
REMARK   48  A    between atoms: _154  and  _157
REMARK   49  A    between atoms: _157  and  _158
REMARK   50  A    between atoms: _158  and  _159
REMARK   51  A    between atoms: _162  and  _164
REMARK   52  A    between atoms: _164  and  _165
REMARK   53  A    between atoms: _164  and  _167
REMARK   54  A    between atoms: _167  and  _168
REMARK   55  A    between atoms: _173  and  _175
REMARK   56  A    between atoms: _175  and  _176
REMARK   57  A    between atoms: _175  and  _178
REMARK   58  A    between atoms: _178  and  _179
REMARK   59  A    between atoms: _179  and  _180
REMARK   60  A    between atoms: _183  and  _185
REMARK   61  A    between atoms: _185  and  _186
REMARK   62  A    between atoms: _185  and  _188
REMARK   63  A    between atoms: _188  and  _189
REMARK   64  A    between atoms: _192  and  _194
REMARK   65  A    between atoms: _194  and  _195
REMARK   66  A    between atoms: _194  and  _197
REMARK   67  A    between atoms: _197  and  _198
REMARK   68  A    between atoms: _199  and  ZN_419
REMARK   69  A    between atoms: _203  and  _205
REMARK   70  A    between atoms: _205  and  _206
REMARK   71  A    between atoms: _205  and  _208
REMARK   72  A    between atoms: _208  and  _209
REMARK   73  A    between atoms: _212  and  _214
REMARK   74  A    between atoms: _214  and  _215
REMARK   75  A    between atoms: _214  and  _217
REMARK   76  A    between atoms: _220  and  _222
REMARK   77  A    between atoms: _222  and  _223
REMARK   78  A    between atoms: _222  and  _225
REMARK   79  A    between atoms: _225  and  _226
REMARK   80  A    between atoms: _231  and  _233
REMARK   81  A    between atoms: _233  and  _234
REMARK   82  A    between atoms: _233  and  _236
REMARK   83  A    between atoms: _236  and  _237
REMARK   84  A    between atoms: _243  and  _245
REMARK   85  A    between atoms: _245  and  _246
REMARK   86  A    between atoms: _245  and  _248
REMARK   87  A    between atoms: _251  and  _253
REMARK   88  A    between atoms: _253  and  _254
REMARK   89  A    between atoms: _253  and  _256
REMARK   90  A    between atoms: _256  and  _257
REMARK   91  A    between atoms: _260  and  _262
REMARK   92  A    between atoms: _262  and  _263
REMARK   93  A    between atoms: _266  and  _268
REMARK   94  A    between atoms: _268  and  _269
REMARK   95  A    between atoms: _268  and  _271
REMARK   96  A    between atoms: _274  and  _276
REMARK   97  A    between atoms: _276  and  _277
REMARK   98  A    between atoms: _276  and  _279
REMARK   99  A    between atoms: _279  and  _280
REMARK  100  A    between atoms: _283  and  _285
REMARK  101  A    between atoms: _285  and  _286
REMARK  102  A    between atoms: _288  and  _290
REMARK  103  A    between atoms: _290  and  _291
REMARK  104  A    between atoms: _293  and  _295
REMARK  105  A    between atoms: _295  and  _296
REMARK  106  A    between atoms: _295  and  _298
REMARK  107  A    between atoms: _298  and  _299
REMARK  108  A    between atoms: _301  and  _303
REMARK  109  A    between atoms: _303  and  _304
REMARK  110  A    between atoms: _303  and  _306
REMARK  111  A    between atoms: _306  and  _307
REMARK  112  A    between atoms: _310  and  _312
REMARK  113  A    between atoms: _312  and  _313
REMARK  114  A    between atoms: _312  and  _315
REMARK  115  A    between atoms: _315  and  _316
REMARK  116  A    between atoms: _319  and  _321
REMARK  117  A    between atoms: _321  and  _322
REMARK  118  A    between atoms: _321  and  _324
REMARK  119  A    between atoms: _324  and  _325
REMARK  120  A    between atoms: _329  and  _330
REMARK  121  A    between atoms: _336  and  _337
REMARK  122  A    between atoms: _342  and  _344
REMARK  123  A    between atoms: _344  and  _345
REMARK  124  A    between atoms: _344  and  _347
REMARK  125  A    between atoms: _347  and  _348
REMARK  126  A    between atoms: _351  and  _353
REMARK  127  A    between atoms: _353  and  _354
REMARK  128  A    between atoms: _353  and  _356
REMARK  129  A    between atoms: _356  and  _357
REMARK  130  A    between atoms: _360  and  _362
REMARK  131  A    between atoms: _362  and  _363
REMARK  132  A    between atoms: _362  and  _365
REMARK  133  A    between atoms: _367  and  _369
REMARK  134  A    between atoms: _369  and  _370
REMARK  135  A    between atoms: _369  and  _372
REMARK  136  A    between atoms: _375  and  _377
REMARK  137  A    between atoms: _377  and  _378
REMARK  138  A    between atoms: _377  and  _380
REMARK  139  A    between atoms: _380  and  _381
REMARK  140  A    between atoms: _391  and  _393
REMARK  141  A    between atoms: _393  and  _394
REMARK  142  A    between atoms: _393  and  _396
REMARK  143  A    between atoms: _396  and  _397
REMARK  144  A    between atoms: _402  and  _404
REMARK  145  A    between atoms: _404  and  _405
REMARK  146  A    between atoms: _404  and  _407
REMARK  147  A    between atoms: _407  and  _408
REMARK  148  A    between atoms: _408  and  _409
REMARK  149  A    between atoms: _409  and  _410
REMARK                            x       y       z     vdW  Elec       q    Type
REMARK                         _______ _______ _______ _____ _____    ______ ____
ROOT
ATOM      1  CA  VAL A   1      17.235  11.412  19.721  0.00  0.00    +0.133 C 
ENDROOT
BRANCH   1   2
ATOM      2  CB  VAL A   1      17.863  10.664  18.495  0.00  0.00    +0.023 C 
ATOM      3  CG2 VAL A   1      16.770   9.929  17.667  0.00  0.00    +0.002 C 
ATOM      4  CG1 VAL A   1      18.753  11.587  17.640  0.00  0.00    +0.002 C 
ENDBRANCH   1   2
BRANCH   1   5
ATOM      5  N   VAL A   1      16.316  12.539  19.364  0.00  0.00    -0.239 NA
ATOM      6  H   VAL A   1      16.299  12.924  18.398  0.00  0.00    +0.142 HD
ENDBRANCH   1   5
BRANCH   1   7
ATOM      7  C   VAL A   1      18.321  11.853  20.707  0.00  0.00    +0.224 C 
ATOM      8  O   VAL A   1      18.978  10.991  21.332  0.00  0.00    -0.287 OA
ENDBRANCH   1   7
TORSDOF 3
REMARK  Name = ../refined-set-2016/3s77/3s77_pocket.pdb
REMARK  149 active torsions:
REMARK  status: ('A' for Active; 'I' for Inactive)
REMARK    1  A    between atoms: _1  and  _3
REMARK    2  A    between atoms: _3  and  _4
REMARK    3  A    between atoms: _3  and  _6
REMARK    4  A    between atoms: _6  and  _7
REMARK    5  A    between atoms: _17  and  _19
REMARK    6  A    between atoms: _19  and  _20
REMARK    7  A    between atoms: _19  and  _22
REMARK    8  A    between atoms: _22  and  _23
REMARK    9  A    between atoms: _28  and  _29
REMARK   10  A    between atoms: _31  and  _33
REMARK   11  A    between atoms: _33  and  _34
REMARK   12  A    between atoms: _33  and  _36
REMARK   13  A    between atoms: _36  and  _37
REMARK   14  A    between atoms: _40  and  _41
REMARK   15  A    between atoms: _46  and  _48
REMARK   16  A    between atoms: _48  and  _49
REMARK   17  A    between atoms: _48  and  _51
REMARK   18  A    between atoms: _51  and  _52
REMARK   19  A    between atoms: _57  and  _59
REMARK   20  A    between atoms: _59  and  _60
REMARK   21  A    between atoms: _59  and  _62
REMARK   22  A    between atoms: _62  and  _63
REMARK   23  A    between atoms: _68  and  _70
REMARK   24  A    between atoms: _70  and  _71
REMARK   25  A    between atoms: _74  and  _76
REMARK   26  A    between atoms: _76  and  _77
REMARK   27  A    between atoms: _76  and  _79
REMARK   28  A    between atoms: _79  and  _80
REMARK   29  A    between atoms: _85  and  _87
REMARK   30  A    between atoms: _87  and  _88
REMARK   31  A    between atoms: _87  and  _90
REMARK   32  A    between atoms: _90  and  _91
REMARK   33  A    between atoms: _94  and  _96
REMARK   34  A    between atoms: _96  and  _97
REMARK   35  A    between atoms: _96  and  _99
REMARK   36  A    between atoms: _99  and  _100
REMARK   37  A    between atoms: _100  and  _101
REMARK   38  A    between atoms: _106  and  _108
REMARK   39  A    between atoms: _108  and  _109
REMARK   40  A    between atoms: _108  and  _111
REMARK   41  A    between atoms: _111  and  _112
REMARK   42  A    between atoms: _118  and  _120
REMARK   43  A    between atoms: _131  and  _134
REMARK   44  A    between atoms: _134  and  _135
REMARK   45  A    between atoms: _143  and  _144
REMARK   46  A    between atoms: _152  and  _154
REMARK   47  A    between atoms: _154  and  _155
REMARK   48  A    between atoms: _154  and  _157
REMARK   49  A    between atoms: _157  and  _158
REMARK   50  A    between atoms: _158  and  _159
REMARK   51  A    between atoms: _162  and  _164
REMARK   52  A    between atoms: _164  and  _165
REMARK   53  A    between atoms: _164  and  _167
REMARK   54  A    between atoms: _167  and  _168
REMARK   55  A    between atoms: _173  and  _175
REMARK   56  A    between atoms: _175  and  _176
REMARK   57  A    between atoms: _175  and  _178
REMARK   58  A    between atoms: _178  and  _179
REMARK   59  A    between atoms: _179  and  _180
REMARK   60  A    between atoms: _183  and  _185
REMARK   61  A    between atoms: _185  and  _186
REMARK   62  A    between atoms: _185  and  _188
REMARK   63  A    between atoms: _188  and  _189
REMARK   64  A    between atoms: _192  and  _194
REMARK   65  A    between atoms: _194  and  _195
REMARK   66  A    between atoms: _194  and  _197
REMARK   67  A    between atoms: _197  and  _198
REMARK   68  A    between atoms: _199  and  ZN_419
REMARK   69  A    between atoms: _203  and  _205
REMARK   70  A    between atoms: _205  and  _206
REMARK   71  A    between atoms: _205  and  _208
REMARK   72  A    between atoms: _208  and  _209
REMARK   73  A    between atoms: _212  and  _214
REMARK   74  A    between atoms: _214  and  _215
REMARK   75  A    between atoms: _214  and  _217
REMARK   76  A    between atoms: _220  and  _222
REMARK   77  A    between atoms: _222  and  _223
REMARK   78  A    between atoms: _222  and  _225
REMARK   79  A    between atoms: _225  and  _226
REMARK   80  A    between atoms: _231  and  _233
REMARK   81  A    between atoms: _233  and  _234
REMARK   82  A    between atoms: _233  and  _236
REMARK   83  A    between atoms: _236  and  _237
REMARK   84  A    between atoms: _243  and  _245
REMARK   85  A    between atoms: _245  and  _246
REMARK   86  A    between atoms: _245  and  _248
REMARK   87  A    between atoms: _251  and  _253
REMARK   88  A    between atoms: _253  and  _254
REMARK   89  A    between atoms: _253  and  _256
REMARK   90  A    between atoms: _256  and  _257
REMARK   91  A    between atoms: _260  and  _262
REMARK   92  A    between atoms: _262  and  _263
REMARK   93  A    between atoms: _266  and  _268
REMARK   94  A    between atoms: _268  and  _269
REMARK   95  A    between atoms: _268  and  _271
REMARK   96  A    between atoms: _274  and  _276
REMARK   97  A    between atoms: _276  and  _277
REMARK   98  A    between atoms: _276  and  _279
REMARK   99  A    between atoms: _279  and  _280
REMARK  100  A    between atoms: _283  and  _285
REMARK  101  A    between atoms: _285  and  _286
REMARK  102  A    between atoms: _288  and  _290
REMARK  103  A    between atoms: _290  and  _291
REMARK  104  A    between atoms: _293  and  _295
REMARK  105  A    between atoms: _295  and  _296
REMARK  106  A    between atoms: _295  and  _298
REMARK  107  A    between atoms: _298  and  _299
REMARK  108  A    between atoms: _301  and  _303
REMARK  109  A    between atoms: _303  and  _304
REMARK  110  A    between atoms: _303  and  _306
REMARK  111  A    between atoms: _306  and  _307
REMARK  112  A    between atoms: _310  and  _312
REMARK  113  A    between atoms: _312  and  _313
REMARK  114  A    between atoms: _312  and  _315
REMARK  115  A    between atoms: _315  and  _316
REMARK  116  A    between atoms: _319  and  _321
REMARK  117  A    between atoms: _321  and  _322
REMARK  118  A    between atoms: _321  and  _324
REMARK  119  A    between atoms: _324  and  _325
REMARK  120  A    between atoms: _329  and  _330
REMARK  121  A    between atoms: _336  and  _337
REMARK  122  A    between atoms: _342  and  _344
REMARK  123  A    between atoms: _344  and  _345
REMARK  124  A    between atoms: _344  and  _347
REMARK  125  A    between atoms: _347  and  _348
REMARK  126  A    between atoms: _351  and  _353
REMARK  127  A    between atoms: _353  and  _354
REMARK  128  A    between atoms: _353  and  _356
REMARK  129  A    between atoms: _356  and  _357
REMARK  130  A    between atoms: _360  and  _362
REMARK  131  A    between atoms: _362  and  _363
REMARK  132  A    between atoms: _362  and  _365
REMARK  133  A    between atoms: _367  and  _369
REMARK  134  A    between atoms: _369  and  _370
REMARK  135  A    between atoms: _369  and  _372
REMARK  136  A    between atoms: _375  and  _377
REMARK  137  A    between atoms: _377  and  _378
REMARK  138  A    between atoms: _377  and  _380
REMARK  139  A    between atoms: _380  and  _381
REMARK  140  A    between atoms: _391  and  _393
REMARK  141  A    between atoms: _393  and  _394
REMARK  142  A    between atoms: _393  and  _396
REMARK  143  A    between atoms: _396  and  _397
REMARK  144  A    between atoms: _402  and  _404
REMARK  145  A    between atoms: _404  and  _405
REMARK  146  A    between atoms: _404  and  _407
REMARK  147  A    between atoms: _407  and  _408
REMARK  148  A    between atoms: _408  and  _409
REMARK  149  A    between atoms: _409  and  _410
REMARK                            x       y       z     vdW  Elec       q    Type
REMARK                         _______ _______ _______ _____ _____    ______ ____
ROOT
ATOM      1  CA  VAL A   3       9.233   2.834  20.039  0.00  0.00    +0.149 C 
ENDROOT
BRANCH   1   3
ATOM      2  C   ALA A   2       8.735   5.075  20.755  0.00  0.00    +0.241 C 
ATOM      3  N   VAL A   3       9.260   3.873  21.036  0.00  0.00    -0.297 N 
ATOM      4  H   VAL A   3       9.684   3.692  21.968  0.00  0.00    +0.150 HD
ATOM      5  O   ALA A   2       8.282   5.333  19.648  0.00  0.00    -0.273 OA
BRANCH   2   6
ATOM      6  CA  ALA A   2       8.781   6.155  21.862  0.00  0.00    +0.149 C 
ATOM      7  CB  ALA A   2       7.343   6.725  22.162  0.00  0.00    +0.031 C 
BRANCH   6  10
ATOM      8  C   LEU A   1      10.649   7.694  22.050  0.00  0.00    +0.238 C 
ATOM      9  O   LEU A   1      10.864   7.413  23.217  0.00  0.00    -0.274 OA
ATOM     10  N   ALA A   2       9.634   7.241  21.362  0.00  0.00    -0.297 N 
ATOM     11  H   ALA A   2       9.425   7.662  20.434  0.00  0.00    +0.150 HD
BRANCH   8  12
ATOM     12  CA  LEU A   1      11.576   8.619  21.255  0.00  0.00    +0.145 C 
BRANCH  12  13
ATOM     13  N   LEU A   1      12.219   9.511  22.186  0.00  0.00    -0.238 NA
ATOM     14  H   LEU A   1      12.779   9.119  22.969  0.00  0.00    +0.142 HD
ENDBRANCH  12  13
BRANCH  12  15
ATOM     15  CB  LEU A   1      12.562   7.694  20.537  0.00  0.00    +0.026 C 
BRANCH  15  16
ATOM     16  CG  LEU A   1      13.467   8.369  19.463  0.00  0.00    +0.002 C 
ATOM     17  CD2 LEU A   1      14.094   7.222  18.588  0.00  0.00    +0.000 C 
ATOM     18  CD1 LEU A   1      12.834   9.454  18.575  0.00  0.00    +0.000 C 
ENDBRANCH  15  16
ENDBRANCH  12  15
ENDBRANCH   8  12
ENDBRANCH   6  10
ENDBRANCH   2   6
ENDBRANCH   1   3
BRANCH   1  19
ATOM     19  C   VAL A   3       8.226   1.780  20.478  0.00  0.00    +0.241 C 
ATOM     20  O   VAL A   3       8.372   1.264  21.605  0.00  0.00    -0.273 OA
ATOM     21  N   LEU A   4       7.250   1.515  19.609  0.00  0.00    -0.297 N 
ATOM     22  H   LEU A   4       7.148   2.092  18.750  0.00  0.00    +0.150 HD
BRANCH  21  23
ATOM     23  CA  LEU A   4       6.310   0.399  19.867  0.00  0.00    +0.149 C 
BRANCH  23  24
ATOM     24  C   LEU A   4       6.875  -0.856  19.180  0.00  0.00    +0.241 C 
ATOM     25  N   GLY A   5       7.146  -1.874  19.988  0.00  0.00    -0.296 N 
ATOM     26  H   GLY A   5       6.964  -1.729  21.002  0.00  0.00    +0.150 HD
ATOM     27  O   LEU A   4       6.959  -0.896  17.943  0.00  0.00    -0.273 OA
BRANCH  25  28
ATOM     28  CA  GLY A   5       7.670  -3.166  19.597  0.00  0.00    +0.163 C 
BRANCH  28  29
ATOM     29  C   GLY A   5       6.581  -4.239  19.594  0.00  0.00    +0.229 C 
ATOM     30  O   GLY A   5       5.806  -4.382  20.573  0.00  0.00    -0.286 OA
ENDBRANCH  28  29
ENDBRANCH  25  28
ENDBRANCH  23  24
BRANCH  23  31
ATOM     31  CB  LEU A   4       4.924   0.779  19.338  0.00  0.00    +0.029 C 
BRANCH  31  32
ATOM     32  CG  LEU A   4       3.748  -0.145  19.620  0.00  0.00    +0.002 C 
ATOM     33  CD2 LEU A   4       3.435  -0.176  21.101  0.00  0.00    +0.000 C 
ATOM     34  CD1 LEU A   4       2.511   0.302  18.780  0.00  0.00    +0.000 C 
ENDBRANCH  31  32
ENDBRANCH  23  31
ENDBRANCH  21  23
ENDBRANCH   1  19
BRANCH   1  35
ATOM     35  CB  VAL A   3      10.593   2.153  19.724  0.00  0.00    +0.027 C 
ATOM     36  CG2 VAL A   3      11.613   3.269  19.321  0.00  0.00    +0.002 C 
ATOM     37  CG1 VAL A   3      10.422   1.183  18.514  0.00  0.00    +0.002 C 
ENDBRANCH   1  35
TORSDOF 15
REMARK  Name = ../refined-set-2016/3s77/3s77_pocket.pdb
REMARK  149 active torsions:
REMARK  status: ('A' for Active; 'I' for Inactive)
REMARK    1  A    between atoms: _1  and  _3
REMARK    2  A    between atoms: _3  and  _4
REMARK    3  A    between atoms: _3  and  _6
REMARK    4  A    between atoms: _6  and  _7
REMARK    5  A    between atoms: _17  and  _19
REMARK    6  A    between atoms: _19  and  _20
REMARK    7  A    between atoms: _19  and  _22
REMARK    8  A    between atoms: _22  and  _23
REMARK    9  A    between atoms: _28  and  _29
REMARK   10  A    between atoms: _31  and  _33
REMARK   11  A    between atoms: _33  and  _34
REMARK   12  A    between atoms: _33  and  _36
REMARK   13  A    between atoms: _36  and  _37
REMARK   14  A    between atoms: _40  and  _41
REMARK   15  A    between atoms: _46  and  _48
REMARK   16  A    between atoms: _48  and  _49
REMARK   17  A    between atoms: _48  and  _51
REMARK   18  A    between atoms: _51  and  _52
REMARK   19  A    between atoms: _57  and  _59
REMARK   20  A    between atoms: _59  and  _60
REMARK   21  A    between atoms: _59  and  _62
REMARK   22  A    between atoms: _62  and  _63
REMARK   23  A    between atoms: _68  and  _70
REMARK   24  A    between atoms: _70  and  _71
REMARK   25  A    between atoms: _74  and  _76
REMARK   26  A    between atoms: _76  and  _77
REMARK   27  A    between atoms: _76  and  _79
REMARK   28  A    between atoms: _79  and  _80
REMARK   29  A    between atoms: _85  and  _87
REMARK   30  A    between atoms: _87  and  _88
REMARK   31  A    between atoms: _87  and  _90
REMARK   32  A    between atoms: _90  and  _91
REMARK   33  A    between atoms: _94  and  _96
REMARK   34  A    between atoms: _96  and  _97
REMARK   35  A    between atoms: _96  and  _99
REMARK   36  A    between atoms: _99  and  _100
REMARK   37  A    between atoms: _100  and  _101
REMARK   38  A    between atoms: _106  and  _108
REMARK   39  A    between atoms: _108  and  _109
REMARK   40  A    between atoms: _108  and  _111
REMARK   41  A    between atoms: _111  and  _112
REMARK   42  A    between atoms: _118  and  _120
REMARK   43  A    between atoms: _131  and  _134
REMARK   44  A    between atoms: _134  and  _135
REMARK   45  A    between atoms: _143  and  _144
REMARK   46  A    between atoms: _152  and  _154
REMARK   47  A    between atoms: _154  and  _155
REMARK   48  A    between atoms: _154  and  _157
REMARK   49  A    between atoms: _157  and  _158
REMARK   50  A    between atoms: _158  and  _159
REMARK   51  A    between atoms: _162  and  _164
REMARK   52  A    between atoms: _164  and  _165
REMARK   53  A    between atoms: _164  and  _167
REMARK   54  A    between atoms: _167  and  _168
REMARK   55  A    between atoms: _173  and  _175
REMARK   56  A    between atoms: _175  and  _176
REMARK   57  A    between atoms: _175  and  _178
REMARK   58  A    between atoms: _178  and  _179
REMARK   59  A    between atoms: _179  and  _180
REMARK   60  A    between atoms: _183  and  _185
REMARK   61  A    between atoms: _185  and  _186
REMARK   62  A    between atoms: _185  and  _188
REMARK   63  A    between atoms: _188  and  _189
REMARK   64  A    between atoms: _192  and  _194
REMARK   65  A    between atoms: _194  and  _195
REMARK   66  A    between atoms: _194  and  _197
REMARK   67  A    between atoms: _197  and  _198
REMARK   68  A    between atoms: _199  and  ZN_419
REMARK   69  A    between atoms: _203  and  _205
REMARK   70  A    between atoms: _205  and  _206
REMARK   71  A    between atoms: _205  and  _208
REMARK   72  A    between atoms: _208  and  _209
REMARK   73  A    between atoms: _212  and  _214
REMARK   74  A    between atoms: _214  and  _215
REMARK   75  A    between atoms: _214  and  _217
REMARK   76  A    between atoms: _220  and  _222
REMARK   77  A    between atoms: _222  and  _223
REMARK   78  A    between atoms: _222  and  _225
REMARK   79  A    between atoms: _225  and  _226
REMARK   80  A    between atoms: _231  and  _233
REMARK   81  A    between atoms: _233  and  _234
REMARK   82  A    between atoms: _233  and  _236
REMARK   83  A    between atoms: _236  and  _237
REMARK   84  A    between atoms: _243  and  _245
REMARK   85  A    between atoms: _245  and  _246
REMARK   86  A    between atoms: _245  and  _248
REMARK   87  A    between atoms: _251  and  _253
REMARK   88  A    between atoms: _253  and  _254
REMARK   89  A    between atoms: _253  and  _256
REMARK   90  A    between atoms: _256  and  _257
REMARK   91  A    between atoms: _260  and  _262
REMARK   92  A    between atoms: _262  and  _263
REMARK   93  A    between atoms: _266  and  _268
REMARK   94  A    between atoms: _268  and  _269
REMARK   95  A    between atoms: _268  and  _271
REMARK   96  A    between atoms: _274  and  _276
REMARK   97  A    between atoms: _276  and  _277
REMARK   98  A    between atoms: _276  and  _279
REMARK   99  A    between atoms: _279  and  _280
REMARK  100  A    between atoms: _283  and  _285
REMARK  101  A    between atoms: _285  and  _286
REMARK  102  A    between atoms: _288  and  _290
REMARK  103  A    between atoms: _290  and  _291
REMARK  104  A    between atoms: _293  and  _295
REMARK  105  A    between atoms: _295  and  _296
REMARK  106  A    between atoms: _295  and  _298
REMARK  107  A    between atoms: _298  and  _299
REMARK  108  A    between atoms: _301  and  _303
REMARK  109  A    between atoms: _303  and  _304
REMARK  110  A    between atoms: _303  and  _306
REMARK  111  A    between atoms: _306  and  _307
REMARK  112  A    between atoms: _310  and  _312
REMARK  113  A    between atoms: _312  and  _313
REMARK  114  A    between atoms: _312  and  _315
REMARK  115  A    between atoms: _315  and  _316
REMARK  116  A    between atoms: _319  and  _321
REMARK  117  A    between atoms: _321  and  _322
REMARK  118  A    between atoms: _321  and  _324
REMARK  119  A    between atoms: _324  and  _325
REMARK  120  A    between atoms: _329  and  _330
REMARK  121  A    between atoms: _336  and  _337
REMARK  122  A    between atoms: _342  and  _344
REMARK  123  A    between atoms: _344  and  _345
REMARK  124  A    between atoms: _344  and  _347
REMARK  125  A    between atoms: _347  and  _348
REMARK  126  A    between atoms: _351  and  _353
REMARK  127  A    between atoms: _353  and  _354
REMARK  128  A    between atoms: _353  and  _356
REMARK  129  A    between atoms: _356  and  _357
REMARK  130  A    between atoms: _360  and  _362
REMARK  131  A    between atoms: _362  and  _363
REMARK  132  A    between atoms: _362  and  _365
REMARK  133  A    between atoms: _367  and  _369
REMARK  134  A    between atoms: _369  and  _370
REMARK  135  A    between atoms: _369  and  _372
REMARK  136  A    between atoms: _375  and  _377
REMARK  137  A    between atoms: _377  and  _378
REMARK  138  A    between atoms: _377  and  _380
REMARK  139  A    between atoms: _380  and  _381
REMARK  140  A    between atoms: _391  and  _393
REMARK  141  A    between atoms: _393  and  _394
REMARK  142  A    between atoms: _393  and  _396
REMARK  143  A    between atoms: _396  and  _397
REMARK  144  A    between atoms: _402  and  _404
REMARK  145  A    between atoms: _404  and  _405
REMARK  146  A    between atoms: _404  and  _407
REMARK  147  A    between atoms: _407  and  _408
REMARK  148  A    between atoms: _408  and  _409
REMARK  149  A    between atoms: _409  and  _410
REMARK                            x       y       z     vdW  Elec       q    Type
REMARK                         _______ _______ _______ _____ _____    ______ ____
ROOT
ATOM      1  CA  THR A   5      21.252   0.226  15.954  0.00  0.00    +0.176 C 
ENDROOT
BRANCH   1   2
ATOM      2  C   THR A   5      22.084   1.457  16.306  0.00  0.00    +0.246 C 
ATOM      3  O   THR A   5      21.581   2.422  16.939  0.00  0.00    -0.273 OA
ATOM      4  N   PRO A   6      23.356   1.462  15.862  0.00  0.00    -0.272 N 
ATOM      5  CA  PRO A   6      24.117   2.684  16.084  0.00  0.00    +0.152 C 
ATOM      6  CB  PRO A   6      25.415   2.428  15.257  0.00  0.00    +0.031 C 
ATOM      7  CG  PRO A   6      25.596   0.939  15.363  0.00  0.00    +0.024 C 
ATOM      8  CD  PRO A   6      24.157   0.389  15.263  0.00  0.00    +0.094 C 
BRANCH   5   9
ATOM      9  C   PRO A   6      23.344   3.882  15.534  0.00  0.00    +0.244 C 
ATOM     10  N   PRO A   7      23.394   5.029  16.217  0.00  0.00    -0.272 N 
ATOM     11  CA  PRO A   7      24.315   5.382  17.259  0.00  0.00    +0.152 C 
ATOM     12  CB  PRO A   7      24.366   6.934  17.174  0.00  0.00    +0.031 C 
ATOM     13  CG  PRO A   7      23.052   7.322  16.588  0.00  0.00    +0.024 C 
ATOM     14  CD  PRO A   7      22.656   6.191  15.680  0.00  0.00    +0.094 C 
ATOM     15  O   PRO A   6      22.771   3.818  14.386  0.00  0.00    -0.273 OA
BRANCH  11  16
ATOM     16  C   PRO A   7      23.879   4.941  18.654  0.00  0.00    +0.241 C 
ATOM     17  O   PRO A   7      24.528   5.330  19.618  0.00  0.00    -0.273 OA
ATOM     18  N   LEU A   8      22.854   4.070  18.777  0.00  0.00    -0.297 N 
ATOM     19  H   LEU A   8      22.261   3.832  17.957  0.00  0.00    +0.150 HD
BRANCH  18  20
ATOM     20  CA  LEU A   8      22.586   3.451  20.117  0.00  0.00    +0.149 C 
BRANCH  20  21
ATOM     21  C   LEU A   8      22.214   4.429  21.238  0.00  0.00    +0.241 C 
ATOM     22  O   LEU A   8      22.447   4.150  22.419  0.00  0.00    -0.273 OA
ATOM     23  N   LEU A   9      21.680   5.588  20.858  0.00  0.00    -0.298 N 
ATOM     24  H   LEU A   9      21.444   5.717  19.853  0.00  0.00    +0.150 HD
BRANCH  23  25
ATOM     25  CA  LEU A   9      21.408   6.689  21.781  0.00  0.00    +0.137 C 
BRANCH  25  26
ATOM     26  C   LEU A   9      20.353   6.284  22.814  0.00  0.00    +0.227 C 
ATOM     27  O   LEU A   9      19.369   5.614  22.506  0.00  0.00    -0.286 OA
ENDBRANCH  25  26
BRANCH  25  28
ATOM     28  CB  LEU A   9      20.962   7.973  21.015  0.00  0.00    +0.028 C 
BRANCH  28  29
ATOM     29  CG  LEU A   9      22.056   8.425  20.022  0.00  0.00    +0.002 C 
ATOM     30  CD2 LEU A   9      23.319   8.987  20.827  0.00  0.00    +0.000 C 
ATOM     31  CD1 LEU A   9      21.490   9.415  18.982  0.00  0.00    +0.000 C 
ENDBRANCH  28  29
ENDBRANCH  25  28
ENDBRANCH  23  25
ENDBRANCH  20  21
BRANCH  20  32
ATOM     32  CB  LEU A   8      23.695   2.464  20.585  0.00  0.00    +0.029 C 
BRANCH  32  33
ATOM     33  CG  LEU A   8      24.061   1.352  19.614  0.00  0.00    +0.002 C 
ATOM     34  CD2 LEU A   8      25.334   0.660  20.113  0.00  0.00    +0.000 C 
ATOM     35  CD1 LEU A   8      22.903   0.254  19.409  0.00  0.00    +0.000 C 
ENDBRANCH  32  33
ENDBRANCH  20  32
ENDBRANCH  18  20
ENDBRANCH  11  16
ENDBRANCH   5   9
ENDBRANCH   1   2
BRANCH   1  38
ATOM     36  C   THR A   4      20.032  -0.903  17.783  0.00  0.00    +0.243 C 
ATOM     37  O   THR A   4      20.626  -1.956  17.654  0.00  0.00    -0.273 OA
ATOM     38  N   THR A   5      20.137   0.124  16.950  0.00  0.00    -0.295 N 
ATOM     39  H   THR A   5      19.425   0.881  16.989  0.00  0.00    +0.150 HD
BRANCH  36  40
ATOM     40  CA  THR A   4      19.077  -0.788  18.975  0.00  0.00    +0.176 C 
BRANCH  40  43
ATOM     41  C   LEU A   3      18.840   1.461  19.766  0.00  0.00    +0.241 C 
ATOM     42  O   LEU A   3      19.836   1.323  20.544  0.00  0.00    -0.273 OA
ATOM     43  N   THR A   4      18.400   0.493  18.961  0.00  0.00    -0.295 N 
ATOM     44  H   THR A   4      17.586   0.655  18.335  0.00  0.00    +0.150 HD
BRANCH  41  45
ATOM     45  CA  LEU A   3      18.115   2.768  19.732  0.00  0.00    +0.149 C 
BRANCH  45  48
ATOM     46  C   SER A   2      17.579   2.578  22.126  0.00  0.00    +0.243 C 
ATOM     47  O   SER A   2      16.798   1.609  21.972  0.00  0.00    -0.273 OA
ATOM     48  N   LEU A   3      18.114   3.255  21.112  0.00  0.00    -0.297 N 
ATOM     49  H   LEU A   3      18.553   4.176  21.311  0.00  0.00    +0.150 HD
BRANCH  46  50
ATOM     50  CA  SER A   2      18.000   2.971  23.527  0.00  0.00    +0.178 C 
BRANCH  50  53
ATOM     51  C   GLY A   1      16.821   2.907  25.683  0.00  0.00    +0.240 C 
ATOM     52  O   GLY A   1      16.874   4.132  25.864  0.00  0.00    -0.274 OA
ATOM     53  N   SER A   2      17.172   2.303  24.557  0.00  0.00    -0.295 N 
ATOM     54  H   SER A   2      16.855   1.326  24.391  0.00  0.00    +0.150 HD
BRANCH  51  55
ATOM     55  CA  GLY A   1      16.279   2.032  26.744  0.00  0.00    +0.169 C 
BRANCH  55  56
ATOM     56  N   GLY A   1      15.246   2.803  27.469  0.00  0.00    -0.236 NA
ATOM     57  H   GLY A   1      14.788   3.623  27.022  0.00  0.00    +0.142 HD
ENDBRANCH  55  56
ENDBRANCH  51  55
ENDBRANCH  50  53
BRANCH  50  58
ATOM     58  CB  SER A   2      19.502   2.573  23.723  0.00  0.00    +0.166 C 
BRANCH  58  59
ATOM     59  OG  SER A   2      19.780   1.231  23.240  0.00  0.00    -0.380 OA
ATOM     60  H   SER A   2      19.570   1.179  22.274  0.00  0.00    +0.211 HD
ENDBRANCH  58  59
ENDBRANCH  50  58
ENDBRANCH  46  50
ENDBRANCH  45  48
BRANCH  45  61
ATOM     61  CB  LEU A   3      18.919   3.777  18.863  0.00  0.00    +0.029 C 
BRANCH  61  62
ATOM     62  CG  LEU A   3      18.461   5.215  18.869  0.00  0.00    +0.002 C 
ATOM     63  CD2 LEU A   3      16.926   5.347  18.523  0.00  0.00    +0.000 C 
ATOM     64  CD1 LEU A   3      19.309   6.090  17.972  0.00  0.00    +0.000 C 
ENDBRANCH  61  62
ENDBRANCH  45  61
ENDBRANCH  41  45
ENDBRANCH  40  43
BRANCH  40  65
ATOM     65  CB  THR A   4      18.125  -2.007  18.921  0.00  0.00    +0.137 C 
ATOM     66  CG2 THR A   4      17.107  -1.939  20.170  0.00  0.00    +0.034 C 
BRANCH  65  67
ATOM     67  OG1 THR A   4      17.477  -2.018  17.624  0.00  0.00    -0.382 OA
ATOM     68  HG1 THR A   4      16.863  -2.792  17.570  0.00  0.00    +0.210 HD
ENDBRANCH  65  67
ENDBRANCH  40  65
ENDBRANCH  36  40
ENDBRANCH   1  38
BRANCH   1  69
ATOM     69  CB  THR A   5      20.712   0.302  14.498  0.00  0.00    +0.137 C 
ATOM     70  CG2 THR A   5      20.023  -1.025  14.148  0.00  0.00    +0.034 C 
BRANCH  69  71
ATOM     71  OG1 THR A   5      19.719   1.368  14.395  0.00  0.00    -0.382 OA
ATOM     72  HG1 THR A   5      20.138   2.232  14.635  0.00  0.00    +0.210 HD
ENDBRANCH  69  71
ENDBRANCH   1  69
TORSDOF 28
REMARK  Name = ../refined-set-2016/3s77/3s77_pocket.pdb
REMARK  149 active torsions:
REMARK  status: ('A' for Active; 'I' for Inactive)
REMARK    1  A    between atoms: _1  and  _3
REMARK    2  A    between atoms: _3  and  _4
REMARK    3  A    between atoms: _3  and  _6
REMARK    4  A    between atoms: _6  and  _7
REMARK    5  A    between atoms: _17  and  _19
REMARK    6  A    between atoms: _19  and  _20
REMARK    7  A    between atoms: _19  and  _22
REMARK    8  A    between atoms: _22  and  _23
REMARK    9  A    between atoms: _28  and  _29
REMARK   10  A    between atoms: _31  and  _33
REMARK   11  A    between atoms: _33  and  _34
REMARK   12  A    between atoms: _33  and  _36
REMARK   13  A    between atoms: _36  and  _37
REMARK   14  A    between atoms: _40  and  _41
REMARK   15  A    between atoms: _46  and  _48
REMARK   16  A    between atoms: _48  and  _49
REMARK   17  A    between atoms: _48  and  _51
REMARK   18  A    between atoms: _51  and  _52
REMARK   19  A    between atoms: _57  and  _59
REMARK   20  A    between atoms: _59  and  _60
REMARK   21  A    between atoms: _59  and  _62
REMARK   22  A    between atoms: _62  and  _63
REMARK   23  A    between atoms: _68  and  _70
REMARK   24  A    between atoms: _70  and  _71
REMARK   25  A    between atoms: _74  and  _76
REMARK   26  A    between atoms: _76  and  _77
REMARK   27  A    between atoms: _76  and  _79
REMARK   28  A    between atoms: _79  and  _80
REMARK   29  A    between atoms: _85  and  _87
REMARK   30  A    between atoms: _87  and  _88
REMARK   31  A    between atoms: _87  and  _90
REMARK   32  A    between atoms: _90  and  _91
REMARK   33  A    between atoms: _94  and  _96
REMARK   34  A    between atoms: _96  and  _97
REMARK   35  A    between atoms: _96  and  _99
REMARK   36  A    between atoms: _99  and  _100
REMARK   37  A    between atoms: _100  and  _101
REMARK   38  A    between atoms: _106  and  _108
REMARK   39  A    between atoms: _108  and  _109
REMARK   40  A    between atoms: _108  and  _111
REMARK   41  A    between atoms: _111  and  _112
REMARK   42  A    between atoms: _118  and  _120
REMARK   43  A    between atoms: _131  and  _134
REMARK   44  A    between atoms: _134  and  _135
REMARK   45  A    between atoms: _143  and  _144
REMARK   46  A    between atoms: _152  and  _154
REMARK   47  A    between atoms: _154  and  _155
REMARK   48  A    between atoms: _154  and  _157
REMARK   49  A    between atoms: _157  and  _158
REMARK   50  A    between atoms: _158  and  _159
REMARK   51  A    between atoms: _162  and  _164
REMARK   52  A    between atoms: _164  and  _165
REMARK   53  A    between atoms: _164  and  _167
REMARK   54  A    between atoms: _167  and  _168
REMARK   55  A    between atoms: _173  and  _175
REMARK   56  A    between atoms: _175  and  _176
REMARK   57  A    between atoms: _175  and  _178
REMARK   58  A    between atoms: _178  and  _179
REMARK   59  A    between atoms: _179  and  _180
REMARK   60  A    between atoms: _183  and  _185
REMARK   61  A    between atoms: _185  and  _186
REMARK   62  A    between atoms: _185  and  _188
REMARK   63  A    between atoms: _188  and  _189
REMARK   64  A    between atoms: _192  and  _194
REMARK   65  A    between atoms: _194  and  _195
REMARK   66  A    between atoms: _194  and  _197
REMARK   67  A    between atoms: _197  and  _198
REMARK   68  A    between atoms: _199  and  ZN_419
REMARK   69  A    between atoms: _203  and  _205
REMARK   70  A    between atoms: _205  and  _206
REMARK   71  A    between atoms: _205  and  _208
REMARK   72  A    between atoms: _208  and  _209
REMARK   73  A    between atoms: _212  and  _214
REMARK   74  A    between atoms: _214  and  _215
REMARK   75  A    between atoms: _214  and  _217
REMARK   76  A    between atoms: _220  and  _222
REMARK   77  A    between atoms: _222  and  _223
REMARK   78  A    between atoms: _222  and  _225
REMARK   79  A    between atoms: _225  and  _226
REMARK   80  A    between atoms: _231  and  _233
REMARK   81  A    between atoms: _233  and  _234
REMARK   82  A    between atoms: _233  and  _236
REMARK   83  A    between atoms: _236  and  _237
REMARK   84  A    between atoms: _243  and  _245
REMARK   85  A    between atoms: _245  and  _246
REMARK   86  A    between atoms: _245  and  _248
REMARK   87  A    between atoms: _251  and  _253
REMARK   88  A    between atoms: _253  and  _254
REMARK   89  A    between atoms: _253  and  _256
REMARK   90  A    between atoms: _256  and  _257
REMARK   91  A    between atoms: _260  and  _262
REMARK   92  A    between atoms: _262  and  _263
REMARK   93  A    between atoms: _266  and  _268
REMARK   94  A    between atoms: _268  and  _269
REMARK   95  A    between atoms: _268  and  _271
REMARK   96  A    between atoms: _274  and  _276
REMARK   97  A    between atoms: _276  and  _277
REMARK   98  A    between atoms: _276  and  _279
REMARK   99  A    between atoms: _279  and  _280
REMARK  100  A    between atoms: _283  and  _285
REMARK  101  A    between atoms: _285  and  _286
REMARK  102  A    between atoms: _288  and  _290
REMARK  103  A    between atoms: _290  and  _291
REMARK  104  A    between atoms: _293  and  _295
REMARK  105  A    between atoms: _295  and  _296
REMARK  106  A    between atoms: _295  and  _298
REMARK  107  A    between atoms: _298  and  _299
REMARK  108  A    between atoms: _301  and  _303
REMARK  109  A    between atoms: _303  and  _304
REMARK  110  A    between atoms: _303  and  _306
REMARK  111  A    between atoms: _306  and  _307
REMARK  112  A    between atoms: _310  and  _312
REMARK  113  A    between atoms: _312  and  _313
REMARK  114  A    between atoms: _312  and  _315
REMARK  115  A    between atoms: _315  and  _316
REMARK  116  A    between atoms: _319  and  _321
REMARK  117  A    between atoms: _321  and  _322
REMARK  118  A    between atoms: _321  and  _324
REMARK  119  A    between atoms: _324  and  _325
REMARK  120  A    between atoms: _329  and  _330
REMARK  121  A    between atoms: _336  and  _337
REMARK  122  A    between atoms: _342  and  _344
REMARK  123  A    between atoms: _344  and  _345
REMARK  124  A    between atoms: _344  and  _347
REMARK  125  A    between atoms: _347  and  _348
REMARK  126  A    between atoms: _351  and  _353
REMARK  127  A    between atoms: _353  and  _354
REMARK  128  A    between atoms: _353  and  _356
REMARK  129  A    between atoms: _356  and  _357
REMARK  130  A    between atoms: _360  and  _362
REMARK  131  A    between atoms: _362  and  _363
REMARK  132  A    between atoms: _362  and  _365
REMARK  133  A    between atoms: _367  and  _369
REMARK  134  A    between atoms: _369  and  _370
REMARK  135  A    between atoms: _369  and  _372
REMARK  136  A    between atoms: _375  and  _377
REMARK  137  A    between atoms: _377  and  _378
REMARK  138  A    between atoms: _377  and  _380
REMARK  139  A    between atoms: _380  and  _381
REMARK  140  A    between atoms: _391  and  _393
REMARK  141  A    between atoms: _393  and  _394
REMARK  142  A    between atoms: _393  and  _396
REMARK  143  A    between atoms: _396  and  _397
REMARK  144  A    between atoms: _402  and  _404
REMARK  145  A    between atoms: _404  and  _405
REMARK  146  A    between atoms: _404  and  _407
REMARK  147  A    between atoms: _407  and  _408
REMARK  148  A    between atoms: _408  and  _409
REMARK  149  A    between atoms: _409  and  _410
REMARK                            x       y       z     vdW  Elec       q    Type
REMARK                         _______ _______ _______ _____ _____    ______ ____
ROOT
ATOM      1  C   CYS A   1      15.170   7.645  24.019  0.00  0.00    +0.239 C 
ATOM      2  N   VAL A   2      15.065   6.358  24.329  0.00  0.00    -0.298 N 
ATOM      3  H   VAL A   2      15.850   5.892  24.827  0.00  0.00    +0.150 HD
ATOM      4  O   CYS A   1      14.217   8.314  23.622  0.00  0.00    -0.274 OA
ENDROOT
BRANCH   1   5
ATOM      5  CA  CYS A   1      16.586   8.243  24.062  0.00  0.00    +0.156 C 
BRANCH   5   6
ATOM      6  N   CYS A   1      17.668   7.172  24.272  0.00  0.00    -0.237 NA
ATOM      7  H   CYS A   1      17.718   6.356  23.630  0.00  0.00    +0.142 HD
ENDBRANCH   5   6
BRANCH   5   8
ATOM      8  CB  CYS A   1      16.880   8.994  22.780  0.00  0.00    +0.095 C 
ATOM      9  SG  CYS A   1      16.887   8.018  21.245  0.00  0.00    -0.080 S 
ENDBRANCH   5   8
ENDBRANCH   1   5
BRANCH   2  10
ATOM     10  CA  VAL A   2      13.855   5.566  23.983  0.00  0.00    +0.137 C 
BRANCH  10  11
ATOM     11  CB  VAL A   2      14.164   4.297  23.168  0.00  0.00    +0.026 C 
ATOM     12  CG2 VAL A   2      12.806   3.570  22.782  0.00  0.00    +0.002 C 
ATOM     13  CG1 VAL A   2      14.949   4.646  21.824  0.00  0.00    +0.002 C 
ENDBRANCH  10  11
BRANCH  10  14
ATOM     14  C   VAL A   2      13.045   5.122  25.227  0.00  0.00    +0.227 C 
ATOM     15  O   VAL A   2      13.589   4.548  26.173  0.00  0.00    -0.286 OA
ENDBRANCH  10  14
ENDBRANCH   2  10
TORSDOF 6
REMARK  Name = ../refined-set-2016/3s77/3s77_pocket.pdb
REMARK  149 active torsions:
REMARK  status: ('A' for Active; 'I' for Inactive)
REMARK    1  A    between atoms: _1  and  _3
REMARK    2  A    between atoms: _3  and  _4
REMARK    3  A    between atoms: _3  and  _6
REMARK    4  A    between atoms: _6  and  _7
REMARK    5  A    between atoms: _17  and  _19
REMARK    6  A    between atoms: _19  and  _20
REMARK    7  A    between atoms: _19  and  _22
REMARK    8  A    between atoms: _22  and  _23
REMARK    9  A    between atoms: _28  and  _29
REMARK   10  A    between atoms: _31  and  _33
REMARK   11  A    between atoms: _33  and  _34
REMARK   12  A    between atoms: _33  and  _36
REMARK   13  A    between atoms: _36  and  _37
REMARK   14  A    between atoms: _40  and  _41
REMARK   15  A    between atoms: _46  and  _48
REMARK   16  A    between atoms: _48  and  _49
REMARK   17  A    between atoms: _48  and  _51
REMARK   18  A    between atoms: _51  and  _52
REMARK   19  A    between atoms: _57  and  _59
REMARK   20  A    between atoms: _59  and  _60
REMARK   21  A    between atoms: _59  and  _62
REMARK   22  A    between atoms: _62  and  _63
REMARK   23  A    between atoms: _68  and  _70
REMARK   24  A    between atoms: _70  and  _71
REMARK   25  A    between atoms: _74  and  _76
REMARK   26  A    between atoms: _76  and  _77
REMARK   27  A    between atoms: _76  and  _79
REMARK   28  A    between atoms: _79  and  _80
REMARK   29  A    between atoms: _85  and  _87
REMARK   30  A    between atoms: _87  and  _88
REMARK   31  A    between atoms: _87  and  _90
REMARK   32  A    between atoms: _90  and  _91
REMARK   33  A    between atoms: _94  and  _96
REMARK   34  A    between atoms: _96  and  _97
REMARK   35  A    between atoms: _96  and  _99
REMARK   36  A    between atoms: _99  and  _100
REMARK   37  A    between atoms: _100  and  _101
REMARK   38  A    between atoms: _106  and  _108
REMARK   39  A    between atoms: _108  and  _109
REMARK   40  A    between atoms: _108  and  _111
REMARK   41  A    between atoms: _111  and  _112
REMARK   42  A    between atoms: _118  and  _120
REMARK   43  A    between atoms: _131  and  _134
REMARK   44  A    between atoms: _134  and  _135
REMARK   45  A    between atoms: _143  and  _144
REMARK   46  A    between atoms: _152  and  _154
REMARK   47  A    between atoms: _154  and  _155
REMARK   48  A    between atoms: _154  and  _157
REMARK   49  A    between atoms: _157  and  _158
REMARK   50  A    between atoms: _158  and  _159
REMARK   51  A    between atoms: _162  and  _164
REMARK   52  A    between atoms: _164  and  _165
REMARK   53  A    between atoms: _164  and  _167
REMARK   54  A    between atoms: _167  and  _168
REMARK   55  A    between atoms: _173  and  _175
REMARK   56  A    between atoms: _175  and  _176
REMARK   57  A    between atoms: _175  and  _178
REMARK   58  A    between atoms: _178  and  _179
REMARK   59  A    between atoms: _179  and  _180
REMARK   60  A    between atoms: _183  and  _185
REMARK   61  A    between atoms: _185  and  _186
REMARK   62  A    between atoms: _185  and  _188
REMARK   63  A    between atoms: _188  and  _189
REMARK   64  A    between atoms: _192  and  _194
REMARK   65  A    between atoms: _194  and  _195
REMARK   66  A    between atoms: _194  and  _197
REMARK   67  A    between atoms: _197  and  _198
REMARK   68  A    between atoms: _199  and  ZN_419
REMARK   69  A    between atoms: _203  and  _205
REMARK   70  A    between atoms: _205  and  _206
REMARK   71  A    between atoms: _205  and  _208
REMARK   72  A    between atoms: _208  and  _209
REMARK   73  A    between atoms: _212  and  _214
REMARK   74  A    between atoms: _214  and  _215
REMARK   75  A    between atoms: _214  and  _217
REMARK   76  A    between atoms: _220  and  _222
REMARK   77  A    between atoms: _222  and  _223
REMARK   78  A    between atoms: _222  and  _225
REMARK   79  A    between atoms: _225  and  _226
REMARK   80  A    between atoms: _231  and  _233
REMARK   81  A    between atoms: _233  and  _234
REMARK   82  A    between atoms: _233  and  _236
REMARK   83  A    between atoms: _236  and  _237
REMARK   84  A    between atoms: _243  and  _245
REMARK   85  A    between atoms: _245  and  _246
REMARK   86  A    between atoms: _245  and  _248
REMARK   87  A    between atoms: _251  and  _253
REMARK   88  A    between atoms: _253  and  _254
REMARK   89  A    between atoms: _253  and  _256
REMARK   90  A    between atoms: _256  and  _257
REMARK   91  A    between atoms: _260  and  _262
REMARK   92  A    between atoms: _262  and  _263
REMARK   93  A    between atoms: _266  and  _268
REMARK   94  A    between atoms: _268  and  _269
REMARK   95  A    between atoms: _268  and  _271
REMARK   96  A    between atoms: _274  and  _276
REMARK   97  A    between atoms: _276  and  _277
REMARK   98  A    between atoms: _276  and  _279
REMARK   99  A    between atoms: _279  and  _280
REMARK  100  A    between atoms: _283  and  _285
REMARK  101  A    between atoms: _285  and  _286
REMARK  102  A    between atoms: _288  and  _290
REMARK  103  A    between atoms: _290  and  _291
REMARK  104  A    between atoms: _293  and  _295
REMARK  105  A    between atoms: _295  and  _296
REMARK  106  A    between atoms: _295  and  _298
REMARK  107  A    between atoms: _298  and  _299
REMARK  108  A    between atoms: _301  and  _303
REMARK  109  A    between atoms: _303  and  _304
REMARK  110  A    between atoms: _303  and  _306
REMARK  111  A    between atoms: _306  and  _307
REMARK  112  A    between atoms: _310  and  _312
REMARK  113  A    between atoms: _312  and  _313
REMARK  114  A    between atoms: _312  and  _315
REMARK  115  A    between atoms: _315  and  _316
REMARK  116  A    between atoms: _319  and  _321
REMARK  117  A    between atoms: _321  and  _322
REMARK  118  A    between atoms: _321  and  _324
REMARK  119  A    between atoms: _324  and  _325
REMARK  120  A    between atoms: _329  and  _330
REMARK  121  A    between atoms: _336  and  _337
REMARK  122  A    between atoms: _342  and  _344
REMARK  123  A    between atoms: _344  and  _345
REMARK  124  A    between atoms: _344  and  _347
REMARK  125  A    between atoms: _347  and  _348
REMARK  126  A    between atoms: _351  and  _353
REMARK  127  A    between atoms: _353  and  _354
REMARK  128  A    between atoms: _353  and  _356
REMARK  129  A    between atoms: _356  and  _357
REMARK  130  A    between atoms: _360  and  _362
REMARK  131  A    between atoms: _362  and  _363
REMARK  132  A    between atoms: _362  and  _365
REMARK  133  A    between atoms: _367  and  _369
REMARK  134  A    between atoms: _369  and  _370
REMARK  135  A    between atoms: _369  and  _372
REMARK  136  A    between atoms: _375  and  _377
REMARK  137  A    between atoms: _377  and  _378
REMARK  138  A    between atoms: _377  and  _380
REMARK  139  A    between atoms: _380  and  _381
REMARK  140  A    between atoms: _391  and  _393
REMARK  141  A    between atoms: _393  and  _394
REMARK  142  A    between atoms: _393  and  _396
REMARK  143  A    between atoms: _396  and  _397
REMARK  144  A    between atoms: _402  and  _404
REMARK  145  A    between atoms: _404  and  _405
REMARK  146  A    between atoms: _404  and  _407
REMARK  147  A    between atoms: _407  and  _408
REMARK  148  A    between atoms: _408  and  _409
REMARK  149  A    between atoms: _409  and  _410
REMARK                            x       y       z     vdW  Elec       q    Type
REMARK                         _______ _______ _______ _____ _____    ______ ____
ROOT
ATOM      1  CG  TRP A   1      12.312   0.129  24.144  0.00  0.00    -0.002 A 
ATOM      2  CD1 TRP A   1      13.576   0.684  24.344  0.00  0.00    +0.068 A 
ATOM      3  NE1 TRP A   1      14.274   0.651  23.133  0.00  0.00    -0.352 N 
ATOM      4  HE1 TRP A   1      15.229   1.031  22.971  0.00  0.00    +0.166 HD
ATOM      5  CE2 TRP A   1      13.475   0.024  22.180  0.00  0.00    +0.056 A 
ATOM      6  CZ2 TRP A   1      13.723  -0.237  20.855  0.00  0.00    +0.017 A 
ATOM      7  CH2 TRP A   1      12.743  -0.804  20.111  0.00  0.00    +0.001 A 
ATOM      8  CZ3 TRP A   1      11.489  -1.166  20.695  0.00  0.00    +0.000 A 
ATOM      9  CE3 TRP A   1      11.211  -0.846  22.001  0.00  0.00    +0.001 A 
ATOM     10  CD2 TRP A   1      12.226  -0.259  22.784  0.00  0.00    +0.013 A 
ENDROOT
BRANCH   1  11
ATOM     11  CB  TRP A   1      11.211   0.001  25.156  0.00  0.00    +0.053 C 
BRANCH  11  12
ATOM     12  CA  TRP A   1      10.224   1.171  24.898  0.00  0.00    +0.137 C 
BRANCH  12  13
ATOM     13  N   TRP A   1      10.682   2.368  25.622  0.00  0.00    -0.239 NA
ATOM     14  H   TRP A   1      11.318   2.259  26.438  0.00  0.00    +0.142 HD
ENDBRANCH  12  13
BRANCH  12  15
ATOM     15  C   TRP A   1       8.858   0.730  25.406  0.00  0.00    +0.224 C 
ATOM     16  O   TRP A   1       8.605   0.701  26.614  0.00  0.00    -0.287 OA
ENDBRANCH  12  15
ENDBRANCH  11  12
ENDBRANCH   1  11
TORSDOF 4
REMARK  Name = ../refined-set-2016/3s77/3s77_pocket.pdb
REMARK  149 active torsions:
REMARK  status: ('A' for Active; 'I' for Inactive)
REMARK    1  A    between atoms: _1  and  _3
REMARK    2  A    between atoms: _3  and  _4
REMARK    3  A    between atoms: _3  and  _6
REMARK    4  A    between atoms: _6  and  _7
REMARK    5  A    between atoms: _17  and  _19
REMARK    6  A    between atoms: _19  and  _20
REMARK    7  A    between atoms: _19  and  _22
REMARK    8  A    between atoms: _22  and  _23
REMARK    9  A    between atoms: _28  and  _29
REMARK   10  A    between atoms: _31  and  _33
REMARK   11  A    between atoms: _33  and  _34
REMARK   12  A    between atoms: _33  and  _36
REMARK   13  A    between atoms: _36  and  _37
REMARK   14  A    between atoms: _40  and  _41
REMARK   15  A    between atoms: _46  and  _48
REMARK   16  A    between atoms: _48  and  _49
REMARK   17  A    between atoms: _48  and  _51
REMARK   18  A    between atoms: _51  and  _52
REMARK   19  A    between atoms: _57  and  _59
REMARK   20  A    between atoms: _59  and  _60
REMARK   21  A    between atoms: _59  and  _62
REMARK   22  A    between atoms: _62  and  _63
REMARK   23  A    between atoms: _68  and  _70
REMARK   24  A    between atoms: _70  and  _71
REMARK   25  A    between atoms: _74  and  _76
REMARK   26  A    between atoms: _76  and  _77
REMARK   27  A    between atoms: _76  and  _79
REMARK   28  A    between atoms: _79  and  _80
REMARK   29  A    between atoms: _85  and  _87
REMARK   30  A    between atoms: _87  and  _88
REMARK   31  A    between atoms: _87  and  _90
REMARK   32  A    between atoms: _90  and  _91
REMARK   33  A    between atoms: _94  and  _96
REMARK   34  A    between atoms: _96  and  _97
REMARK   35  A    between atoms: _96  and  _99
REMARK   36  A    between atoms: _99  and  _100
REMARK   37  A    between atoms: _100  and  _101
REMARK   38  A    between atoms: _106  and  _108
REMARK   39  A    between atoms: _108  and  _109
REMARK   40  A    between atoms: _108  and  _111
REMARK   41  A    between atoms: _111  and  _112
REMARK   42  A    between atoms: _118  and  _120
REMARK   43  A    between atoms: _131  and  _134
REMARK   44  A    between atoms: _134  and  _135
REMARK   45  A    between atoms: _143  and  _144
REMARK   46  A    between atoms: _152  and  _154
REMARK   47  A    between atoms: _154  and  _155
REMARK   48  A    between atoms: _154  and  _157
REMARK   49  A    between atoms: _157  and  _158
REMARK   50  A    between atoms: _158  and  _159
REMARK   51  A    between atoms: _162  and  _164
REMARK   52  A    between atoms: _164  and  _165
REMARK   53  A    between atoms: _164  and  _167
REMARK   54  A    between atoms: _167  and  _168
REMARK   55  A    between atoms: _173  and  _175
REMARK   56  A    between atoms: _175  and  _176
REMARK   57  A    between atoms: _175  and  _178
REMARK   58  A    between atoms: _178  and  _179
REMARK   59  A    between atoms: _179  and  _180
REMARK   60  A    between atoms: _183  and  _185
REMARK   61  A    between atoms: _185  and  _186
REMARK   62  A    between atoms: _185  and  _188
REMARK   63  A    between atoms: _188  and  _189
REMARK   64  A    between atoms: _192  and  _194
REMARK   65  A    between atoms: _194  and  _195
REMARK   66  A    between atoms: _194  and  _197
REMARK   67  A    between atoms: _197  and  _198
REMARK   68  A    between atoms: _199  and  ZN_419
REMARK   69  A    between atoms: _203  and  _205
REMARK   70  A    between atoms: _205  and  _206
REMARK   71  A    between atoms: _205  and  _208
REMARK   72  A    between atoms: _208  and  _209
REMARK   73  A    between atoms: _212  and  _214
REMARK   74  A    between atoms: _214  and  _215
REMARK   75  A    between atoms: _214  and  _217
REMARK   76  A    between atoms: _220  and  _222
REMARK   77  A    between atoms: _222  and  _223
REMARK   78  A    between atoms: _222  and  _225
REMARK   79  A    between atoms: _225  and  _226
REMARK   80  A    between atoms: _231  and  _233
REMARK   81  A    between atoms: _233  and  _234
REMARK   82  A    between atoms: _233  and  _236
REMARK   83  A    between atoms: _236  and  _237
REMARK   84  A    between atoms: _243  and  _245
REMARK   85  A    between atoms: _245  and  _246
REMARK   86  A    between atoms: _245  and  _248
REMARK   87  A    between atoms: _251  and  _253
REMARK   88  A    between atoms: _253  and  _254
REMARK   89  A    between atoms: _253  and  _256
REMARK   90  A    between atoms: _256  and  _257
REMARK   91  A    between atoms: _260  and  _262
REMARK   92  A    between atoms: _262  and  _263
REMARK   93  A    between atoms: _266  and  _268
REMARK   94  A    between atoms: _268  and  _269
REMARK   95  A    between atoms: _268  and  _271
REMARK   96  A    between atoms: _274  and  _276
REMARK   97  A    between atoms: _276  and  _277
REMARK   98  A    between atoms: _276  and  _279
REMARK   99  A    between atoms: _279  and  _280
REMARK  100  A    between atoms: _283  and  _285
REMARK  101  A    between atoms: _285  and  _286
REMARK  102  A    between atoms: _288  and  _290
REMARK  103  A    between atoms: _290  and  _291
REMARK  104  A    between atoms: _293  and  _295
REMARK  105  A    between atoms: _295  and  _296
REMARK  106  A    between atoms: _295  and  _298
REMARK  107  A    between atoms: _298  and  _299
REMARK  108  A    between atoms: _301  and  _303
REMARK  109  A    between atoms: _303  and  _304
REMARK  110  A    between atoms: _303  and  _306
REMARK  111  A    between atoms: _306  and  _307
REMARK  112  A    between atoms: _310  and  _312
REMARK  113  A    between atoms: _312  and  _313
REMARK  114  A    between atoms: _312  and  _315
REMARK  115  A    between atoms: _315  and  _316
REMARK  116  A    between atoms: _319  and  _321
REMARK  117  A    between atoms: _321  and  _322
REMARK  118  A    between atoms: _321  and  _324
REMARK  119  A    between atoms: _324  and  _325
REMARK  120  A    between atoms: _329  and  _330
REMARK  121  A    between atoms: _336  and  _337
REMARK  122  A    between atoms: _342  and  _344
REMARK  123  A    between atoms: _344  and  _345
REMARK  124  A    between atoms: _344  and  _347
REMARK  125  A    between atoms: _347  and  _348
REMARK  126  A    between atoms: _351  and  _353
REMARK  127  A    between atoms: _353  and  _354
REMARK  128  A    between atoms: _353  and  _356
REMARK  129  A    between atoms: _356  and  _357
REMARK  130  A    between atoms: _360  and  _362
REMARK  131  A    between atoms: _362  and  _363
REMARK  132  A    between atoms: _362  and  _365
REMARK  133  A    between atoms: _367  and  _369
REMARK  134  A    between atoms: _369  and  _370
REMARK  135  A    between atoms: _369  and  _372
REMARK  136  A    between atoms: _375  and  _377
REMARK  137  A    between atoms: _377  and  _378
REMARK  138  A    between atoms: _377  and  _380
REMARK  139  A    between atoms: _380  and  _381
REMARK  140  A    between atoms: _391  and  _393
REMARK  141  A    between atoms: _393  and  _394
REMARK  142  A    between atoms: _393  and  _396
REMARK  143  A    between atoms: _396  and  _397
REMARK  144  A    between atoms: _402  and  _404
REMARK  145  A    between atoms: _404  and  _405
REMARK  146  A    between atoms: _404  and  _407
REMARK  147  A    between atoms: _407  and  _408
REMARK  148  A    between atoms: _408  and  _409
REMARK  149  A    between atoms: _409  and  _410
REMARK                            x       y       z     vdW  Elec       q    Type
REMARK                         _______ _______ _______ _____ _____    ______ ____
ROOT
ATOM      1  CB  ASN A   1      19.138  -7.212  10.404  0.00  0.00    +0.110 C 
ENDROOT
BRANCH   1   2
ATOM      2  CG  ASN A   1      17.659  -7.350  10.200  0.00  0.00    +0.221 C 
ATOM      3  OD1 ASN A   1      16.991  -8.242  10.765  0.00  0.00    -0.275 OA
ATOM      4  ND2 ASN A   1      17.113  -6.459   9.393  0.00  0.00    -0.329 N 
ATOM      5 HD21 ASN A   1      16.090  -6.483   9.207  0.00  0.00    +0.145 HD
ATOM      6 HD22 ASN A   1      17.706  -5.733   8.943  0.00  0.00    +0.145 HD
ENDBRANCH   1   2
BRANCH   1   7
ATOM      7  CA  ASN A   1      19.686  -8.057  11.550  0.00  0.00    +0.142 C 
BRANCH   7   8
ATOM      8  N   ASN A   1      19.378  -9.491  11.280  0.00  0.00    -0.239 NA
ATOM      9  H   ASN A   1      18.489  -9.749  10.806  0.00  0.00    +0.142 HD
ENDBRANCH   7   8
BRANCH   7  10
ATOM     10  C   ASN A   1      19.096  -7.610  12.949  0.00  0.00    +0.225 C 
ATOM     11  O   ASN A   1      18.531  -6.528  13.077  0.00  0.00    -0.287 OA
ENDBRANCH   7  10
ENDBRANCH   1   7
TORSDOF 4
REMARK  Name = ../refined-set-2016/3s77/3s77_pocket.pdb
REMARK  149 active torsions:
REMARK  status: ('A' for Active; 'I' for Inactive)
REMARK    1  A    between atoms: _1  and  _3
REMARK    2  A    between atoms: _3  and  _4
REMARK    3  A    between atoms: _3  and  _6
REMARK    4  A    between atoms: _6  and  _7
REMARK    5  A    between atoms: _17  and  _19
REMARK    6  A    between atoms: _19  and  _20
REMARK    7  A    between atoms: _19  and  _22
REMARK    8  A    between atoms: _22  and  _23
REMARK    9  A    between atoms: _28  and  _29
REMARK   10  A    between atoms: _31  and  _33
REMARK   11  A    between atoms: _33  and  _34
REMARK   12  A    between atoms: _33  and  _36
REMARK   13  A    between atoms: _36  and  _37
REMARK   14  A    between atoms: _40  and  _41
REMARK   15  A    between atoms: _46  and  _48
REMARK   16  A    between atoms: _48  and  _49
REMARK   17  A    between atoms: _48  and  _51
REMARK   18  A    between atoms: _51  and  _52
REMARK   19  A    between atoms: _57  and  _59
REMARK   20  A    between atoms: _59  and  _60
REMARK   21  A    between atoms: _59  and  _62
REMARK   22  A    between atoms: _62  and  _63
REMARK   23  A    between atoms: _68  and  _70
REMARK   24  A    between atoms: _70  and  _71
REMARK   25  A    between atoms: _74  and  _76
REMARK   26  A    between atoms: _76  and  _77
REMARK   27  A    between atoms: _76  and  _79
REMARK   28  A    between atoms: _79  and  _80
REMARK   29  A    between atoms: _85  and  _87
REMARK   30  A    between atoms: _87  and  _88
REMARK   31  A    between atoms: _87  and  _90
REMARK   32  A    between atoms: _90  and  _91
REMARK   33  A    between atoms: _94  and  _96
REMARK   34  A    between atoms: _96  and  _97
REMARK   35  A    between atoms: _96  and  _99
REMARK   36  A    between atoms: _99  and  _100
REMARK   37  A    between atoms: _100  and  _101
REMARK   38  A    between atoms: _106  and  _108
REMARK   39  A    between atoms: _108  and  _109
REMARK   40  A    between atoms: _108  and  _111
REMARK   41  A    between atoms: _111  and  _112
REMARK   42  A    between atoms: _118  and  _120
REMARK   43  A    between atoms: _131  and  _134
REMARK   44  A    between atoms: _134  and  _135
REMARK   45  A    between atoms: _143  and  _144
REMARK   46  A    between atoms: _152  and  _154
REMARK   47  A    between atoms: _154  and  _155
REMARK   48  A    between atoms: _154  and  _157
REMARK   49  A    between atoms: _157  and  _158
REMARK   50  A    between atoms: _158  and  _159
REMARK   51  A    between atoms: _162  and  _164
REMARK   52  A    between atoms: _164  and  _165
REMARK   53  A    between atoms: _164  and  _167
REMARK   54  A    between atoms: _167  and  _168
REMARK   55  A    between atoms: _173  and  _175
REMARK   56  A    between atoms: _175  and  _176
REMARK   57  A    between atoms: _175  and  _178
REMARK   58  A    between atoms: _178  and  _179
REMARK   59  A    between atoms: _179  and  _180
REMARK   60  A    between atoms: _183  and  _185
REMARK   61  A    between atoms: _185  and  _186
REMARK   62  A    between atoms: _185  and  _188
REMARK   63  A    between atoms: _188  and  _189
REMARK   64  A    between atoms: _192  and  _194
REMARK   65  A    between atoms: _194  and  _195
REMARK   66  A    between atoms: _194  and  _197
REMARK   67  A    between atoms: _197  and  _198
REMARK   68  A    between atoms: _199  and  ZN_419
REMARK   69  A    between atoms: _203  and  _205
REMARK   70  A    between atoms: _205  and  _206
REMARK   71  A    between atoms: _205  and  _208
REMARK   72  A    between atoms: _208  and  _209
REMARK   73  A    between atoms: _212  and  _214
REMARK   74  A    between atoms: _214  and  _215
REMARK   75  A    between atoms: _214  and  _217
REMARK   76  A    between atoms: _220  and  _222
REMARK   77  A    between atoms: _222  and  _223
REMARK   78  A    between atoms: _222  and  _225
REMARK   79  A    between atoms: _225  and  _226
REMARK   80  A    between atoms: _231  and  _233
REMARK   81  A    between atoms: _233  and  _234
REMARK   82  A    between atoms: _233  and  _236
REMARK   83  A    between atoms: _236  and  _237
REMARK   84  A    between atoms: _243  and  _245
REMARK   85  A    between atoms: _245  and  _246
REMARK   86  A    between atoms: _245  and  _248
REMARK   87  A    between atoms: _251  and  _253
REMARK   88  A    between atoms: _253  and  _254
REMARK   89  A    between atoms: _253  and  _256
REMARK   90  A    between atoms: _256  and  _257
REMARK   91  A    between atoms: _260  and  _262
REMARK   92  A    between atoms: _262  and  _263
REMARK   93  A    between atoms: _266  and  _268
REMARK   94  A    between atoms: _268  and  _269
REMARK   95  A    between atoms: _268  and  _271
REMARK   96  A    between atoms: _274  and  _276
REMARK   97  A    between atoms: _276  and  _277
REMARK   98  A    between atoms: _276  and  _279
REMARK   99  A    between atoms: _279  and  _280
REMARK  100  A    between atoms: _283  and  _285
REMARK  101  A    between atoms: _285  and  _286
REMARK  102  A    between atoms: _288  and  _290
REMARK  103  A    between atoms: _290  and  _291
REMARK  104  A    between atoms: _293  and  _295
REMARK  105  A    between atoms: _295  and  _296
REMARK  106  A    between atoms: _295  and  _298
REMARK  107  A    between atoms: _298  and  _299
REMARK  108  A    between atoms: _301  and  _303
REMARK  109  A    between atoms: _303  and  _304
REMARK  110  A    between atoms: _303  and  _306
REMARK  111  A    between atoms: _306  and  _307
REMARK  112  A    between atoms: _310  and  _312
REMARK  113  A    between atoms: _312  and  _313
REMARK  114  A    between atoms: _312  and  _315
REMARK  115  A    between atoms: _315  and  _316
REMARK  116  A    between atoms: _319  and  _321
REMARK  117  A    between atoms: _321  and  _322
REMARK  118  A    between atoms: _321  and  _324
REMARK  119  A    between atoms: _324  and  _325
REMARK  120  A    between atoms: _329  and  _330
REMARK  121  A    between atoms: _336  and  _337
REMARK  122  A    between atoms: _342  and  _344
REMARK  123  A    between atoms: _344  and  _345
REMARK  124  A    between atoms: _344  and  _347
REMARK  125  A    between atoms: _347  and  _348
REMARK  126  A    between atoms: _351  and  _353
REMARK  127  A    between atoms: _353  and  _354
REMARK  128  A    between atoms: _353  and  _356
REMARK  129  A    between atoms: _356  and  _357
REMARK  130  A    between atoms: _360  and  _362
REMARK  131  A    between atoms: _362  and  _363
REMARK  132  A    between atoms: _362  and  _365
REMARK  133  A    between atoms: _367  and  _369
REMARK  134  A    between atoms: _369  and  _370
REMARK  135  A    between atoms: _369  and  _372
REMARK  136  A    between atoms: _375  and  _377
REMARK  137  A    between atoms: _377  and  _378
REMARK  138  A    between atoms: _377  and  _380
REMARK  139  A    between atoms: _380  and  _381
REMARK  140  A    between atoms: _391  and  _393
REMARK  141  A    between atoms: _393  and  _394
REMARK  142  A    between atoms: _393  and  _396
REMARK  143  A    between atoms: _396  and  _397
REMARK  144  A    between atoms: _402  and  _404
REMARK  145  A    between atoms: _404  and  _405
REMARK  146  A    between atoms: _404  and  _407
REMARK  147  A    between atoms: _407  and  _408
REMARK  148  A    between atoms: _408  and  _409
REMARK  149  A    between atoms: _409  and  _410
REMARK                            x       y       z     vdW  Elec       q    Type
REMARK                         _______ _______ _______ _____ _____    ______ ____
ROOT
ATOM      1  NE  ARG A   1      23.381  -3.672  21.235  0.00  0.00    -0.265 N 
ATOM      2  CZ  ARG A   1      23.489  -2.587  22.027  0.00  0.00    +0.342 C 
ATOM      3  NH2 ARG A   1      24.687  -2.314  22.542  0.00  0.00    -0.292 N 
ATOM      4 HH21 ARG A   1      24.812  -1.485  23.158  0.00  0.00    +0.255 HD
ATOM      5 HH22 ARG A   1      25.498  -2.929  22.328  0.00  0.00    +0.255 HD
ATOM      6  NH1 ARG A   1      22.416  -1.777  22.332  0.00  0.00    -0.292 N 
ATOM      7 HH11 ARG A   1      22.548  -0.950  22.948  0.00  0.00    +0.255 HD
ATOM      8 HH12 ARG A   1      21.475  -1.993  21.946  0.00  0.00    +0.255 HD
ATOM      9  HE  ARG A   1      24.216  -4.277  21.101  0.00  0.00    +0.259 HD
ENDROOT
BRANCH   1  10
ATOM     10  CD  ARG A   1      22.117  -4.038  20.545  0.00  0.00    +0.174 C 
BRANCH  10  11
ATOM     11  CG  ARG A   1      22.183  -5.411  19.864  0.00  0.00    +0.045 C 
BRANCH  11  12
ATOM     12  CB  ARG A   1      21.028  -5.562  18.823  0.00  0.00    +0.029 C 
BRANCH  12  13
ATOM     13  CA  ARG A   1      20.959  -7.019  18.300  0.00  0.00    +0.133 C 
BRANCH  13  14
ATOM     14  N   ARG A   1      20.069  -7.114  17.159  0.00  0.00    -0.239 NA
ATOM     15  H   ARG A   1      19.342  -6.379  17.045  0.00  0.00    +0.142 HD
ENDBRANCH  13  14
BRANCH  13  16
ATOM     16  C   ARG A   1      20.448  -7.933  19.399  0.00  0.00    +0.224 C 
ATOM     17  O   ARG A   1      19.247  -7.898  19.736  0.00  0.00    -0.287 OA
ENDBRANCH  13  16
ENDBRANCH  12  13
ENDBRANCH  11  12
ENDBRANCH  10  11
ENDBRANCH   1  10
TORSDOF 6
REMARK  Name = ../refined-set-2016/3s77/3s77_pocket.pdb
REMARK  149 active torsions:
REMARK  status: ('A' for Active; 'I' for Inactive)
REMARK    1  A    between atoms: _1  and  _3
REMARK    2  A    between atoms: _3  and  _4
REMARK    3  A    between atoms: _3  and  _6
REMARK    4  A    between atoms: _6  and  _7
REMARK    5  A    between atoms: _17  and  _19
REMARK    6  A    between atoms: _19  and  _20
REMARK    7  A    between atoms: _19  and  _22
REMARK    8  A    between atoms: _22  and  _23
REMARK    9  A    between atoms: _28  and  _29
REMARK   10  A    between atoms: _31  and  _33
REMARK   11  A    between atoms: _33  and  _34
REMARK   12  A    between atoms: _33  and  _36
REMARK   13  A    between atoms: _36  and  _37
REMARK   14  A    between atoms: _40  and  _41
REMARK   15  A    between atoms: _46  and  _48
REMARK   16  A    between atoms: _48  and  _49
REMARK   17  A    between atoms: _48  and  _51
REMARK   18  A    between atoms: _51  and  _52
REMARK   19  A    between atoms: _57  and  _59
REMARK   20  A    between atoms: _59  and  _60
REMARK   21  A    between atoms: _59  and  _62
REMARK   22  A    between atoms: _62  and  _63
REMARK   23  A    between atoms: _68  and  _70
REMARK   24  A    between atoms: _70  and  _71
REMARK   25  A    between atoms: _74  and  _76
REMARK   26  A    between atoms: _76  and  _77
REMARK   27  A    between atoms: _76  and  _79
REMARK   28  A    between atoms: _79  and  _80
REMARK   29  A    between atoms: _85  and  _87
REMARK   30  A    between atoms: _87  and  _88
REMARK   31  A    between atoms: _87  and  _90
REMARK   32  A    between atoms: _90  and  _91
REMARK   33  A    between atoms: _94  and  _96
REMARK   34  A    between atoms: _96  and  _97
REMARK   35  A    between atoms: _96  and  _99
REMARK   36  A    between atoms: _99  and  _100
REMARK   37  A    between atoms: _100  and  _101
REMARK   38  A    between atoms: _106  and  _108
REMARK   39  A    between atoms: _108  and  _109
REMARK   40  A    between atoms: _108  and  _111
REMARK   41  A    between atoms: _111  and  _112
REMARK   42  A    between atoms: _118  and  _120
REMARK   43  A    between atoms: _131  and  _134
REMARK   44  A    between atoms: _134  and  _135
REMARK   45  A    between atoms: _143  and  _144
REMARK   46  A    between atoms: _152  and  _154
REMARK   47  A    between atoms: _154  and  _155
REMARK   48  A    between atoms: _154  and  _157
REMARK   49  A    between atoms: _157  and  _158
REMARK   50  A    between atoms: _158  and  _159
REMARK   51  A    between atoms: _162  and  _164
REMARK   52  A    between atoms: _164  and  _165
REMARK   53  A    between atoms: _164  and  _167
REMARK   54  A    between atoms: _167  and  _168
REMARK   55  A    between atoms: _173  and  _175
REMARK   56  A    between atoms: _175  and  _176
REMARK   57  A    between atoms: _175  and  _178
REMARK   58  A    between atoms: _178  and  _179
REMARK   59  A    between atoms: _179  and  _180
REMARK   60  A    between atoms: _183  and  _185
REMARK   61  A    between atoms: _185  and  _186
REMARK   62  A    between atoms: _185  and  _188
REMARK   63  A    between atoms: _188  and  _189
REMARK   64  A    between atoms: _192  and  _194
REMARK   65  A    between atoms: _194  and  _195
REMARK   66  A    between atoms: _194  and  _197
REMARK   67  A    between atoms: _197  and  _198
REMARK   68  A    between atoms: _199  and  ZN_419
REMARK   69  A    between atoms: _203  and  _205
REMARK   70  A    between atoms: _205  and  _206
REMARK   71  A    between atoms: _205  and  _208
REMARK   72  A    between atoms: _208  and  _209
REMARK   73  A    between atoms: _212  and  _214
REMARK   74  A    between atoms: _214  and  _215
REMARK   75  A    between atoms: _214  and  _217
REMARK   76  A    between atoms: _220  and  _222
REMARK   77  A    between atoms: _222  and  _223
REMARK   78  A    between atoms: _222  and  _225
REMARK   79  A    between atoms: _225  and  _226
REMARK   80  A    between atoms: _231  and  _233
REMARK   81  A    between atoms: _233  and  _234
REMARK   82  A    between atoms: _233  and  _236
REMARK   83  A    between atoms: _236  and  _237
REMARK   84  A    between atoms: _243  and  _245
REMARK   85  A    between atoms: _245  and  _246
REMARK   86  A    between atoms: _245  and  _248
REMARK   87  A    between atoms: _251  and  _253
REMARK   88  A    between atoms: _253  and  _254
REMARK   89  A    between atoms: _253  and  _256
REMARK   90  A    between atoms: _256  and  _257
REMARK   91  A    between atoms: _260  and  _262
REMARK   92  A    between atoms: _262  and  _263
REMARK   93  A    between atoms: _266  and  _268
REMARK   94  A    between atoms: _268  and  _269
REMARK   95  A    between atoms: _268  and  _271
REMARK   96  A    between atoms: _274  and  _276
REMARK   97  A    between atoms: _276  and  _277
REMARK   98  A    between atoms: _276  and  _279
REMARK   99  A    between atoms: _279  and  _280
REMARK  100  A    between atoms: _283  and  _285
REMARK  101  A    between atoms: _285  and  _286
REMARK  102  A    between atoms: _288  and  _290
REMARK  103  A    between atoms: _290  and  _291
REMARK  104  A    between atoms: _293  and  _295
REMARK  105  A    between atoms: _295  and  _296
REMARK  106  A    between atoms: _295  and  _298
REMARK  107  A    between atoms: _298  and  _299
REMARK  108  A    between atoms: _301  and  _303
REMARK  109  A    between atoms: _303  and  _304
REMARK  110  A    between atoms: _303  and  _306
REMARK  111  A    between atoms: _306  and  _307
REMARK  112  A    between atoms: _310  and  _312
REMARK  113  A    between atoms: _312  and  _313
REMARK  114  A    between atoms: _312  and  _315
REMARK  115  A    between atoms: _315  and  _316
REMARK  116  A    between atoms: _319  and  _321
REMARK  117  A    between atoms: _321  and  _322
REMARK  118  A    between atoms: _321  and  _324
REMARK  119  A    between atoms: _324  and  _325
REMARK  120  A    between atoms: _329  and  _330
REMARK  121  A    between atoms: _336  and  _337
REMARK  122  A    between atoms: _342  and  _344
REMARK  123  A    between atoms: _344  and  _345
REMARK  124  A    between atoms: _344  and  _347
REMARK  125  A    between atoms: _347  and  _348
REMARK  126  A    between atoms: _351  and  _353
REMARK  127  A    between atoms: _353  and  _354
REMARK  128  A    between atoms: _353  and  _356
REMARK  129  A    between atoms: _356  and  _357
REMARK  130  A    between atoms: _360  and  _362
REMARK  131  A    between atoms: _362  and  _363
REMARK  132  A    between atoms: _362  and  _365
REMARK  133  A    between atoms: _367  and  _369
REMARK  134  A    between atoms: _369  and  _370
REMARK  135  A    between atoms: _369  and  _372
REMARK  136  A    between atoms: _375  and  _377
REMARK  137  A    between atoms: _377  and  _378
REMARK  138  A    between atoms: _377  and  _380
REMARK  139  A    between atoms: _380  and  _381
REMARK  140  A    between atoms: _391  and  _393
REMARK  141  A    between atoms: _393  and  _394
REMARK  142  A    between atoms: _393  and  _396
REMARK  143  A    between atoms: _396  and  _397
REMARK  144  A    between atoms: _402  and  _404
REMARK  145  A    between atoms: _404  and  _405
REMARK  146  A    between atoms: _404  and  _407
REMARK  147  A    between atoms: _407  and  _408
REMARK  148  A    between atoms: _408  and  _409
REMARK  149  A    between atoms: _409  and  _410
REMARK                            x       y       z     vdW  Elec       q    Type
REMARK                         _______ _______ _______ _____ _____    ______ ____
ROOT
ATOM      1  O   HOH     1      19.809  -3.996  15.742  0.00  0.00    +0.000 OA
ENDROOT
TORSDOF 0
REMARK  Name = ../refined-set-2016/3s77/3s77_pocket.pdb
REMARK  149 active torsions:
REMARK  status: ('A' for Active; 'I' for Inactive)
REMARK    1  A    between atoms: _1  and  _3
REMARK    2  A    between atoms: _3  and  _4
REMARK    3  A    between atoms: _3  and  _6
REMARK    4  A    between atoms: _6  and  _7
REMARK    5  A    between atoms: _17  and  _19
REMARK    6  A    between atoms: _19  and  _20
REMARK    7  A    between atoms: _19  and  _22
REMARK    8  A    between atoms: _22  and  _23
REMARK    9  A    between atoms: _28  and  _29
REMARK   10  A    between atoms: _31  and  _33
REMARK   11  A    between atoms: _33  and  _34
REMARK   12  A    between atoms: _33  and  _36
REMARK   13  A    between atoms: _36  and  _37
REMARK   14  A    between atoms: _40  and  _41
REMARK   15  A    between atoms: _46  and  _48
REMARK   16  A    between atoms: _48  and  _49
REMARK   17  A    between atoms: _48  and  _51
REMARK   18  A    between atoms: _51  and  _52
REMARK   19  A    between atoms: _57  and  _59
REMARK   20  A    between atoms: _59  and  _60
REMARK   21  A    between atoms: _59  and  _62
REMARK   22  A    between atoms: _62  and  _63
REMARK   23  A    between atoms: _68  and  _70
REMARK   24  A    between atoms: _70  and  _71
REMARK   25  A    between atoms: _74  and  _76
REMARK   26  A    between atoms: _76  and  _77
REMARK   27  A    between atoms: _76  and  _79
REMARK   28  A    between atoms: _79  and  _80
REMARK   29  A    between atoms: _85  and  _87
REMARK   30  A    between atoms: _87  and  _88
REMARK   31  A    between atoms: _87  and  _90
REMARK   32  A    between atoms: _90  and  _91
REMARK   33  A    between atoms: _94  and  _96
REMARK   34  A    between atoms: _96  and  _97
REMARK   35  A    between atoms: _96  and  _99
REMARK   36  A    between atoms: _99  and  _100
REMARK   37  A    between atoms: _100  and  _101
REMARK   38  A    between atoms: _106  and  _108
REMARK   39  A    between atoms: _108  and  _109
REMARK   40  A    between atoms: _108  and  _111
REMARK   41  A    between atoms: _111  and  _112
REMARK   42  A    between atoms: _118  and  _120
REMARK   43  A    between atoms: _131  and  _134
REMARK   44  A    between atoms: _134  and  _135
REMARK   45  A    between atoms: _143  and  _144
REMARK   46  A    between atoms: _152  and  _154
REMARK   47  A    between atoms: _154  and  _155
REMARK   48  A    between atoms: _154  and  _157
REMARK   49  A    between atoms: _157  and  _158
REMARK   50  A    between atoms: _158  and  _159
REMARK   51  A    between atoms: _162  and  _164
REMARK   52  A    between atoms: _164  and  _165
REMARK   53  A    between atoms: _164  and  _167
REMARK   54  A    between atoms: _167  and  _168
REMARK   55  A    between atoms: _173  and  _175
REMARK   56  A    between atoms: _175  and  _176
REMARK   57  A    between atoms: _175  and  _178
REMARK   58  A    between atoms: _178  and  _179
REMARK   59  A    between atoms: _179  and  _180
REMARK   60  A    between atoms: _183  and  _185
REMARK   61  A    between atoms: _185  and  _186
REMARK   62  A    between atoms: _185  and  _188
REMARK   63  A    between atoms: _188  and  _189
REMARK   64  A    between atoms: _192  and  _194
REMARK   65  A    between atoms: _194  and  _195
REMARK   66  A    between atoms: _194  and  _197
REMARK   67  A    between atoms: _197  and  _198
REMARK   68  A    between atoms: _199  and  ZN_419
REMARK   69  A    between atoms: _203  and  _205
REMARK   70  A    between atoms: _205  and  _206
REMARK   71  A    between atoms: _205  and  _208
REMARK   72  A    between atoms: _208  and  _209
REMARK   73  A    between atoms: _212  and  _214
REMARK   74  A    between atoms: _214  and  _215
REMARK   75  A    between atoms: _214  and  _217
REMARK   76  A    between atoms: _220  and  _222
REMARK   77  A    between atoms: _222  and  _223
REMARK   78  A    between atoms: _222  and  _225
REMARK   79  A    between atoms: _225  and  _226
REMARK   80  A    between atoms: _231  and  _233
REMARK   81  A    between atoms: _233  and  _234
REMARK   82  A    between atoms: _233  and  _236
REMARK   83  A    between atoms: _236  and  _237
REMARK   84  A    between atoms: _243  and  _245
REMARK   85  A    between atoms: _245  and  _246
REMARK   86  A    between atoms: _245  and  _248
REMARK   87  A    between atoms: _251  and  _253
REMARK   88  A    between atoms: _253  and  _254
REMARK   89  A    between atoms: _253  and  _256
REMARK   90  A    between atoms: _256  and  _257
REMARK   91  A    between atoms: _260  and  _262
REMARK   92  A    between atoms: _262  and  _263
REMARK   93  A    between atoms: _266  and  _268
REMARK   94  A    between atoms: _268  and  _269
REMARK   95  A    between atoms: _268  and  _271
REMARK   96  A    between atoms: _274  and  _276
REMARK   97  A    between atoms: _276  and  _277
REMARK   98  A    between atoms: _276  and  _279
REMARK   99  A    between atoms: _279  and  _280
REMARK  100  A    between atoms: _283  and  _285
REMARK  101  A    between atoms: _285  and  _286
REMARK  102  A    between atoms: _288  and  _290
REMARK  103  A    between atoms: _290  and  _291
REMARK  104  A    between atoms: _293  and  _295
REMARK  105  A    between atoms: _295  and  _296
REMARK  106  A    between atoms: _295  and  _298
REMARK  107  A    between atoms: _298  and  _299
REMARK  108  A    between atoms: _301  and  _303
REMARK  109  A    between atoms: _303  and  _304
REMARK  110  A    between atoms: _303  and  _306
REMARK  111  A    between atoms: _306  and  _307
REMARK  112  A    between atoms: _310  and  _312
REMARK  113  A    between atoms: _312  and  _313
REMARK  114  A    between atoms: _312  and  _315
REMARK  115  A    between atoms: _315  and  _316
REMARK  116  A    between atoms: _319  and  _321
REMARK  117  A    between atoms: _321  and  _322
REMARK  118  A    between atoms: _321  and  _324
REMARK  119  A    between atoms: _324  and  _325
REMARK  120  A    between atoms: _329  and  _330
REMARK  121  A    between atoms: _336  and  _337
REMARK  122  A    between atoms: _342  and  _344
REMARK  123  A    between atoms: _344  and  _345
REMARK  124  A    between atoms: _344  and  _347
REMARK  125  A    between atoms: _347  and  _348
REMARK  126  A    between atoms: _351  and  _353
REMARK  127  A    between atoms: _353  and  _354
REMARK  128  A    between atoms: _353  and  _356
REMARK  129  A    between atoms: _356  and  _357
REMARK  130  A    between atoms: _360  and  _362
REMARK  131  A    between atoms: _362  and  _363
REMARK  132  A    between atoms: _362  and  _365
REMARK  133  A    between atoms: _367  and  _369
REMARK  134  A    between atoms: _369  and  _370
REMARK  135  A    between atoms: _369  and  _372
REMARK  136  A    between atoms: _375  and  _377
REMARK  137  A    between atoms: _377  and  _378
REMARK  138  A    between atoms: _377  and  _380
REMARK  139  A    between atoms: _380  and  _381
REMARK  140  A    between atoms: _391  and  _393
REMARK  141  A    between atoms: _393  and  _394
REMARK  142  A    between atoms: _393  and  _396
REMARK  143  A    between atoms: _396  and  _397
REMARK  144  A    between atoms: _402  and  _404
REMARK  145  A    between atoms: _404  and  _405
REMARK  146  A    between atoms: _404  and  _407
REMARK  147  A    between atoms: _407  and  _408
REMARK  148  A    between atoms: _408  and  _409
REMARK  149  A    between atoms: _409  and  _410
REMARK                            x       y       z     vdW  Elec       q    Type
REMARK                         _______ _______ _______ _____ _____    ______ ____
ROOT
ATOM      1  O   HOH     1      17.122   0.542  13.641  0.00  0.00    +0.000 OA
ENDROOT
TORSDOF 0
REMARK  Name = ../refined-set-2016/3s77/3s77_pocket.pdb
REMARK  149 active torsions:
REMARK  status: ('A' for Active; 'I' for Inactive)
REMARK    1  A    between atoms: _1  and  _3
REMARK    2  A    between atoms: _3  and  _4
REMARK    3  A    between atoms: _3  and  _6
REMARK    4  A    between atoms: _6  and  _7
REMARK    5  A    between atoms: _17  and  _19
REMARK    6  A    between atoms: _19  and  _20
REMARK    7  A    between atoms: _19  and  _22
REMARK    8  A    between atoms: _22  and  _23
REMARK    9  A    between atoms: _28  and  _29
REMARK   10  A    between atoms: _31  and  _33
REMARK   11  A    between atoms: _33  and  _34
REMARK   12  A    between atoms: _33  and  _36
REMARK   13  A    between atoms: _36  and  _37
REMARK   14  A    between atoms: _40  and  _41
REMARK   15  A    between atoms: _46  and  _48
REMARK   16  A    between atoms: _48  and  _49
REMARK   17  A    between atoms: _48  and  _51
REMARK   18  A    between atoms: _51  and  _52
REMARK   19  A    between atoms: _57  and  _59
REMARK   20  A    between atoms: _59  and  _60
REMARK   21  A    between atoms: _59  and  _62
REMARK   22  A    between atoms: _62  and  _63
REMARK   23  A    between atoms: _68  and  _70
REMARK   24  A    between atoms: _70  and  _71
REMARK   25  A    between atoms: _74  and  _76
REMARK   26  A    between atoms: _76  and  _77
REMARK   27  A    between atoms: _76  and  _79
REMARK   28  A    between atoms: _79  and  _80
REMARK   29  A    between atoms: _85  and  _87
REMARK   30  A    between atoms: _87  and  _88
REMARK   31  A    between atoms: _87  and  _90
REMARK   32  A    between atoms: _90  and  _91
REMARK   33  A    between atoms: _94  and  _96
REMARK   34  A    between atoms: _96  and  _97
REMARK   35  A    between atoms: _96  and  _99
REMARK   36  A    between atoms: _99  and  _100
REMARK   37  A    between atoms: _100  and  _101
REMARK   38  A    between atoms: _106  and  _108
REMARK   39  A    between atoms: _108  and  _109
REMARK   40  A    between atoms: _108  and  _111
REMARK   41  A    between atoms: _111  and  _112
REMARK   42  A    between atoms: _118  and  _120
REMARK   43  A    between atoms: _131  and  _134
REMARK   44  A    between atoms: _134  and  _135
REMARK   45  A    between atoms: _143  and  _144
REMARK   46  A    between atoms: _152  and  _154
REMARK   47  A    between atoms: _154  and  _155
REMARK   48  A    between atoms: _154  and  _157
REMARK   49  A    between atoms: _157  and  _158
REMARK   50  A    between atoms: _158  and  _159
REMARK   51  A    between atoms: _162  and  _164
REMARK   52  A    between atoms: _164  and  _165
REMARK   53  A    between atoms: _164  and  _167
REMARK   54  A    between atoms: _167  and  _168
REMARK   55  A    between atoms: _173  and  _175
REMARK   56  A    between atoms: _175  and  _176
REMARK   57  A    between atoms: _175  and  _178
REMARK   58  A    between atoms: _178  and  _179
REMARK   59  A    between atoms: _179  and  _180
REMARK   60  A    between atoms: _183  and  _185
REMARK   61  A    between atoms: _185  and  _186
REMARK   62  A    between atoms: _185  and  _188
REMARK   63  A    between atoms: _188  and  _189
REMARK   64  A    between atoms: _192  and  _194
REMARK   65  A    between atoms: _194  and  _195
REMARK   66  A    between atoms: _194  and  _197
REMARK   67  A    between atoms: _197  and  _198
REMARK   68  A    between atoms: _199  and  ZN_419
REMARK   69  A    between atoms: _203  and  _205
REMARK   70  A    between atoms: _205  and  _206
REMARK   71  A    between atoms: _205  and  _208
REMARK   72  A    between atoms: _208  and  _209
REMARK   73  A    between atoms: _212  and  _214
REMARK   74  A    between atoms: _214  and  _215
REMARK   75  A    between atoms: _214  and  _217
REMARK   76  A    between atoms: _220  and  _222
REMARK   77  A    between atoms: _222  and  _223
REMARK   78  A    between atoms: _222  and  _225
REMARK   79  A    between atoms: _225  and  _226
REMARK   80  A    between atoms: _231  and  _233
REMARK   81  A    between atoms: _233  and  _234
REMARK   82  A    between atoms: _233  and  _236
REMARK   83  A    between atoms: _236  and  _237
REMARK   84  A    between atoms: _243  and  _245
REMARK   85  A    between atoms: _245  and  _246
REMARK   86  A    between atoms: _245  and  _248
REMARK   87  A    between atoms: _251  and  _253
REMARK   88  A    between atoms: _253  and  _254
REMARK   89  A    between atoms: _253  and  _256
REMARK   90  A    between atoms: _256  and  _257
REMARK   91  A    between atoms: _260  and  _262
REMARK   92  A    between atoms: _262  and  _263
REMARK   93  A    between atoms: _266  and  _268
REMARK   94  A    between atoms: _268  and  _269
REMARK   95  A    between atoms: _268  and  _271
REMARK   96  A    between atoms: _274  and  _276
REMARK   97  A    between atoms: _276  and  _277
REMARK   98  A    between atoms: _276  and  _279
REMARK   99  A    between atoms: _279  and  _280
REMARK  100  A    between atoms: _283  and  _285
REMARK  101  A    between atoms: _285  and  _286
REMARK  102  A    between atoms: _288  and  _290
REMARK  103  A    between atoms: _290  and  _291
REMARK  104  A    between atoms: _293  and  _295
REMARK  105  A    between atoms: _295  and  _296
REMARK  106  A    between atoms: _295  and  _298
REMARK  107  A    between atoms: _298  and  _299
REMARK  108  A    between atoms: _301  and  _303
REMARK  109  A    between atoms: _303  and  _304
REMARK  110  A    between atoms: _303  and  _306
REMARK  111  A    between atoms: _306  and  _307
REMARK  112  A    between atoms: _310  and  _312
REMARK  113  A    between atoms: _312  and  _313
REMARK  114  A    between atoms: _312  and  _315
REMARK  115  A    between atoms: _315  and  _316
REMARK  116  A    between atoms: _319  and  _321
REMARK  117  A    between atoms: _321  and  _322
REMARK  118  A    between atoms: _321  and  _324
REMARK  119  A    between atoms: _324  and  _325
REMARK  120  A    between atoms: _329  and  _330
REMARK  121  A    between atoms: _336  and  _337
REMARK  122  A    between atoms: _342  and  _344
REMARK  123  A    between atoms: _344  and  _345
REMARK  124  A    between atoms: _344  and  _347
REMARK  125  A    between atoms: _347  and  _348
REMARK  126  A    between atoms: _351  and  _353
REMARK  127  A    between atoms: _353  and  _354
REMARK  128  A    between atoms: _353  and  _356
REMARK  129  A    between atoms: _356  and  _357
REMARK  130  A    between atoms: _360  and  _362
REMARK  131  A    between atoms: _362  and  _363
REMARK  132  A    between atoms: _362  and  _365
REMARK  133  A    between atoms: _367  and  _369
REMARK  134  A    between atoms: _369  and  _370
REMARK  135  A    between atoms: _369  and  _372
REMARK  136  A    between atoms: _375  and  _377
REMARK  137  A    between atoms: _377  and  _378
REMARK  138  A    between atoms: _377  and  _380
REMARK  139  A    between atoms: _380  and  _381
REMARK  140  A    between atoms: _391  and  _393
REMARK  141  A    between atoms: _393  and  _394
REMARK  142  A    between atoms: _393  and  _396
REMARK  143  A    between atoms: _396  and  _397
REMARK  144  A    between atoms: _402  and  _404
REMARK  145  A    between atoms: _404  and  _405
REMARK  146  A    between atoms: _404  and  _407
REMARK  147  A    between atoms: _407  and  _408
REMARK  148  A    between atoms: _408  and  _409
REMARK  149  A    between atoms: _409  and  _410
REMARK                            x       y       z     vdW  Elec       q    Type
REMARK                         _______ _______ _______ _____ _____    ______ ____
ROOT
ATOM      1  O   HOH     1      18.568  -3.476  11.476  0.00  0.00    +0.000 OA
ENDROOT
TORSDOF 0
REMARK  Name = ../refined-set-2016/3s77/3s77_pocket.pdb
REMARK  149 active torsions:
REMARK  status: ('A' for Active; 'I' for Inactive)
REMARK    1  A    between atoms: _1  and  _3
REMARK    2  A    between atoms: _3  and  _4
REMARK    3  A    between atoms: _3  and  _6
REMARK    4  A    between atoms: _6  and  _7
REMARK    5  A    between atoms: _17  and  _19
REMARK    6  A    between atoms: _19  and  _20
REMARK    7  A    between atoms: _19  and  _22
REMARK    8  A    between atoms: _22  and  _23
REMARK    9  A    between atoms: _28  and  _29
REMARK   10  A    between atoms: _31  and  _33
REMARK   11  A    between atoms: _33  and  _34
REMARK   12  A    between atoms: _33  and  _36
REMARK   13  A    between atoms: _36  and  _37
REMARK   14  A    between atoms: _40  and  _41
REMARK   15  A    between atoms: _46  and  _48
REMARK   16  A    between atoms: _48  and  _49
REMARK   17  A    between atoms: _48  and  _51
REMARK   18  A    between atoms: _51  and  _52
REMARK   19  A    between atoms: _57  and  _59
REMARK   20  A    between atoms: _59  and  _60
REMARK   21  A    between atoms: _59  and  _62
REMARK   22  A    between atoms: _62  and  _63
REMARK   23  A    between atoms: _68  and  _70
REMARK   24  A    between atoms: _70  and  _71
REMARK   25  A    between atoms: _74  and  _76
REMARK   26  A    between atoms: _76  and  _77
REMARK   27  A    between atoms: _76  and  _79
REMARK   28  A    between atoms: _79  and  _80
REMARK   29  A    between atoms: _85  and  _87
REMARK   30  A    between atoms: _87  and  _88
REMARK   31  A    between atoms: _87  and  _90
REMARK   32  A    between atoms: _90  and  _91
REMARK   33  A    between atoms: _94  and  _96
REMARK   34  A    between atoms: _96  and  _97
REMARK   35  A    between atoms: _96  and  _99
REMARK   36  A    between atoms: _99  and  _100
REMARK   37  A    between atoms: _100  and  _101
REMARK   38  A    between atoms: _106  and  _108
REMARK   39  A    between atoms: _108  and  _109
REMARK   40  A    between atoms: _108  and  _111
REMARK   41  A    between atoms: _111  and  _112
REMARK   42  A    between atoms: _118  and  _120
REMARK   43  A    between atoms: _131  and  _134
REMARK   44  A    between atoms: _134  and  _135
REMARK   45  A    between atoms: _143  and  _144
REMARK   46  A    between atoms: _152  and  _154
REMARK   47  A    between atoms: _154  and  _155
REMARK   48  A    between atoms: _154  and  _157
REMARK   49  A    between atoms: _157  and  _158
REMARK   50  A    between atoms: _158  and  _159
REMARK   51  A    between atoms: _162  and  _164
REMARK   52  A    between atoms: _164  and  _165
REMARK   53  A    between atoms: _164  and  _167
REMARK   54  A    between atoms: _167  and  _168
REMARK   55  A    between atoms: _173  and  _175
REMARK   56  A    between atoms: _175  and  _176
REMARK   57  A    between atoms: _175  and  _178
REMARK   58  A    between atoms: _178  and  _179
REMARK   59  A    between atoms: _179  and  _180
REMARK   60  A    between atoms: _183  and  _185
REMARK   61  A    between atoms: _185  and  _186
REMARK   62  A    between atoms: _185  and  _188
REMARK   63  A    between atoms: _188  and  _189
REMARK   64  A    between atoms: _192  and  _194
REMARK   65  A    between atoms: _194  and  _195
REMARK   66  A    between atoms: _194  and  _197
REMARK   67  A    between atoms: _197  and  _198
REMARK   68  A    between atoms: _199  and  ZN_419
REMARK   69  A    between atoms: _203  and  _205
REMARK   70  A    between atoms: _205  and  _206
REMARK   71  A    between atoms: _205  and  _208
REMARK   72  A    between atoms: _208  and  _209
REMARK   73  A    between atoms: _212  and  _214
REMARK   74  A    between atoms: _214  and  _215
REMARK   75  A    between atoms: _214  and  _217
REMARK   76  A    between atoms: _220  and  _222
REMARK   77  A    between atoms: _222  and  _223
REMARK   78  A    between atoms: _222  and  _225
REMARK   79  A    between atoms: _225  and  _226
REMARK   80  A    between atoms: _231  and  _233
REMARK   81  A    between atoms: _233  and  _234
REMARK   82  A    between atoms: _233  and  _236
REMARK   83  A    between atoms: _236  and  _237
REMARK   84  A    between atoms: _243  and  _245
REMARK   85  A    between atoms: _245  and  _246
REMARK   86  A    between atoms: _245  and  _248
REMARK   87  A    between atoms: _251  and  _253
REMARK   88  A    between atoms: _253  and  _254
REMARK   89  A    between atoms: _253  and  _256
REMARK   90  A    between atoms: _256  and  _257
REMARK   91  A    between atoms: _260  and  _262
REMARK   92  A    between atoms: _262  and  _263
REMARK   93  A    between atoms: _266  and  _268
REMARK   94  A    between atoms: _268  and  _269
REMARK   95  A    between atoms: _268  and  _271
REMARK   96  A    between atoms: _274  and  _276
REMARK   97  A    between atoms: _276  and  _277
REMARK   98  A    between atoms: _276  and  _279
REMARK   99  A    between atoms: _279  and  _280
REMARK  100  A    between atoms: _283  and  _285
REMARK  101  A    between atoms: _285  and  _286
REMARK  102  A    between atoms: _288  and  _290
REMARK  103  A    between atoms: _290  and  _291
REMARK  104  A    between atoms: _293  and  _295
REMARK  105  A    between atoms: _295  and  _296
REMARK  106  A    between atoms: _295  and  _298
REMARK  107  A    between atoms: _298  and  _299
REMARK  108  A    between atoms: _301  and  _303
REMARK  109  A    between atoms: _303  and  _304
REMARK  110  A    between atoms: _303  and  _306
REMARK  111  A    between atoms: _306  and  _307
REMARK  112  A    between atoms: _310  and  _312
REMARK  113  A    between atoms: _312  and  _313
REMARK  114  A    between atoms: _312  and  _315
REMARK  115  A    between atoms: _315  and  _316
REMARK  116  A    between atoms: _319  and  _321
REMARK  117  A    between atoms: _321  and  _322
REMARK  118  A    between atoms: _321  and  _324
REMARK  119  A    between atoms: _324  and  _325
REMARK  120  A    between atoms: _329  and  _330
REMARK  121  A    between atoms: _336  and  _337
REMARK  122  A    between atoms: _342  and  _344
REMARK  123  A    between atoms: _344  and  _345
REMARK  124  A    between atoms: _344  and  _347
REMARK  125  A    between atoms: _347  and  _348
REMARK  126  A    between atoms: _351  and  _353
REMARK  127  A    between atoms: _353  and  _354
REMARK  128  A    between atoms: _353  and  _356
REMARK  129  A    between atoms: _356  and  _357
REMARK  130  A    between atoms: _360  and  _362
REMARK  131  A    between atoms: _362  and  _363
REMARK  132  A    between atoms: _362  and  _365
REMARK  133  A    between atoms: _367  and  _369
REMARK  134  A    between atoms: _369  and  _370
REMARK  135  A    between atoms: _369  and  _372
REMARK  136  A    between atoms: _375  and  _377
REMARK  137  A    between atoms: _377  and  _378
REMARK  138  A    between atoms: _377  and  _380
REMARK  139  A    between atoms: _380  and  _381
REMARK  140  A    between atoms: _391  and  _393
REMARK  141  A    between atoms: _393  and  _394
REMARK  142  A    between atoms: _393  and  _396
REMARK  143  A    between atoms: _396  and  _397
REMARK  144  A    between atoms: _402  and  _404
REMARK  145  A    between atoms: _404  and  _405
REMARK  146  A    between atoms: _404  and  _407
REMARK  147  A    between atoms: _407  and  _408
REMARK  148  A    between atoms: _408  and  _409
REMARK  149  A    between atoms: _409  and  _410
REMARK                            x       y       z     vdW  Elec       q    Type
REMARK                         _______ _______ _______ _____ _____    ______ ____
ROOT
ATOM      1  O   HOH     1      16.137   0.820   9.921  0.00  0.00    +0.000 OA
ENDROOT
TORSDOF 0
REMARK  Name = ../refined-set-2016/3s77/3s77_pocket.pdb
REMARK  149 active torsions:
REMARK  status: ('A' for Active; 'I' for Inactive)
REMARK    1  A    between atoms: _1  and  _3
REMARK    2  A    between atoms: _3  and  _4
REMARK    3  A    between atoms: _3  and  _6
REMARK    4  A    between atoms: _6  and  _7
REMARK    5  A    between atoms: _17  and  _19
REMARK    6  A    between atoms: _19  and  _20
REMARK    7  A    between atoms: _19  and  _22
REMARK    8  A    between atoms: _22  and  _23
REMARK    9  A    between atoms: _28  and  _29
REMARK   10  A    between atoms: _31  and  _33
REMARK   11  A    between atoms: _33  and  _34
REMARK   12  A    between atoms: _33  and  _36
REMARK   13  A    between atoms: _36  and  _37
REMARK   14  A    between atoms: _40  and  _41
REMARK   15  A    between atoms: _46  and  _48
REMARK   16  A    between atoms: _48  and  _49
REMARK   17  A    between atoms: _48  and  _51
REMARK   18  A    between atoms: _51  and  _52
REMARK   19  A    between atoms: _57  and  _59
REMARK   20  A    between atoms: _59  and  _60
REMARK   21  A    between atoms: _59  and  _62
REMARK   22  A    between atoms: _62  and  _63
REMARK   23  A    between atoms: _68  and  _70
REMARK   24  A    between atoms: _70  and  _71
REMARK   25  A    between atoms: _74  and  _76
REMARK   26  A    between atoms: _76  and  _77
REMARK   27  A    between atoms: _76  and  _79
REMARK   28  A    between atoms: _79  and  _80
REMARK   29  A    between atoms: _85  and  _87
REMARK   30  A    between atoms: _87  and  _88
REMARK   31  A    between atoms: _87  and  _90
REMARK   32  A    between atoms: _90  and  _91
REMARK   33  A    between atoms: _94  and  _96
REMARK   34  A    between atoms: _96  and  _97
REMARK   35  A    between atoms: _96  and  _99
REMARK   36  A    between atoms: _99  and  _100
REMARK   37  A    between atoms: _100  and  _101
REMARK   38  A    between atoms: _106  and  _108
REMARK   39  A    between atoms: _108  and  _109
REMARK   40  A    between atoms: _108  and  _111
REMARK   41  A    between atoms: _111  and  _112
REMARK   42  A    between atoms: _118  and  _120
REMARK   43  A    between atoms: _131  and  _134
REMARK   44  A    between atoms: _134  and  _135
REMARK   45  A    between atoms: _143  and  _144
REMARK   46  A    between atoms: _152  and  _154
REMARK   47  A    between atoms: _154  and  _155
REMARK   48  A    between atoms: _154  and  _157
REMARK   49  A    between atoms: _157  and  _158
REMARK   50  A    between atoms: _158  and  _159
REMARK   51  A    between atoms: _162  and  _164
REMARK   52  A    between atoms: _164  and  _165
REMARK   53  A    between atoms: _164  and  _167
REMARK   54  A    between atoms: _167  and  _168
REMARK   55  A    between atoms: _173  and  _175
REMARK   56  A    between atoms: _175  and  _176
REMARK   57  A    between atoms: _175  and  _178
REMARK   58  A    between atoms: _178  and  _179
REMARK   59  A    between atoms: _179  and  _180
REMARK   60  A    between atoms: _183  and  _185
REMARK   61  A    between atoms: _185  and  _186
REMARK   62  A    between atoms: _185  and  _188
REMARK   63  A    between atoms: _188  and  _189
REMARK   64  A    between atoms: _192  and  _194
REMARK   65  A    between atoms: _194  and  _195
REMARK   66  A    between atoms: _194  and  _197
REMARK   67  A    between atoms: _197  and  _198
REMARK   68  A    between atoms: _199  and  ZN_419
REMARK   69  A    between atoms: _203  and  _205
REMARK   70  A    between atoms: _205  and  _206
REMARK   71  A    between atoms: _205  and  _208
REMARK   72  A    between atoms: _208  and  _209
REMARK   73  A    between atoms: _212  and  _214
REMARK   74  A    between atoms: _214  and  _215
REMARK   75  A    between atoms: _214  and  _217
REMARK   76  A    between atoms: _220  and  _222
REMARK   77  A    between atoms: _222  and  _223
REMARK   78  A    between atoms: _222  and  _225
REMARK   79  A    between atoms: _225  and  _226
REMARK   80  A    between atoms: _231  and  _233
REMARK   81  A    between atoms: _233  and  _234
REMARK   82  A    between atoms: _233  and  _236
REMARK   83  A    between atoms: _236  and  _237
REMARK   84  A    between atoms: _243  and  _245
REMARK   85  A    between atoms: _245  and  _246
REMARK   86  A    between atoms: _245  and  _248
REMARK   87  A    between atoms: _251  and  _253
REMARK   88  A    between atoms: _253  and  _254
REMARK   89  A    between atoms: _253  and  _256
REMARK   90  A    between atoms: _256  and  _257
REMARK   91  A    between atoms: _260  and  _262
REMARK   92  A    between atoms: _262  and  _263
REMARK   93  A    between atoms: _266  and  _268
REMARK   94  A    between atoms: _268  and  _269
REMARK   95  A    between atoms: _268  and  _271
REMARK   96  A    between atoms: _274  and  _276
REMARK   97  A    between atoms: _276  and  _277
REMARK   98  A    between atoms: _276  and  _279
REMARK   99  A    between atoms: _279  and  _280
REMARK  100  A    between atoms: _283  and  _285
REMARK  101  A    between atoms: _285  and  _286
REMARK  102  A    between atoms: _288  and  _290
REMARK  103  A    between atoms: _290  and  _291
REMARK  104  A    between atoms: _293  and  _295
REMARK  105  A    between atoms: _295  and  _296
REMARK  106  A    between atoms: _295  and  _298
REMARK  107  A    between atoms: _298  and  _299
REMARK  108  A    between atoms: _301  and  _303
REMARK  109  A    between atoms: _303  and  _304
REMARK  110  A    between atoms: _303  and  _306
REMARK  111  A    between atoms: _306  and  _307
REMARK  112  A    between atoms: _310  and  _312
REMARK  113  A    between atoms: _312  and  _313
REMARK  114  A    between atoms: _312  and  _315
REMARK  115  A    between atoms: _315  and  _316
REMARK  116  A    between atoms: _319  and  _321
REMARK  117  A    between atoms: _321  and  _322
REMARK  118  A    between atoms: _321  and  _324
REMARK  119  A    between atoms: _324  and  _325
REMARK  120  A    between atoms: _329  and  _330
REMARK  121  A    between atoms: _336  and  _337
REMARK  122  A    between atoms: _342  and  _344
REMARK  123  A    between atoms: _344  and  _345
REMARK  124  A    between atoms: _344  and  _347
REMARK  125  A    between atoms: _347  and  _348
REMARK  126  A    between atoms: _351  and  _353
REMARK  127  A    between atoms: _353  and  _354
REMARK  128  A    between atoms: _353  and  _356
REMARK  129  A    between atoms: _356  and  _357
REMARK  130  A    between atoms: _360  and  _362
REMARK  131  A    between atoms: _362  and  _363
REMARK  132  A    between atoms: _362  and  _365
REMARK  133  A    between atoms: _367  and  _369
REMARK  134  A    between atoms: _369  and  _370
REMARK  135  A    between atoms: _369  and  _372
REMARK  136  A    between atoms: _375  and  _377
REMARK  137  A    between atoms: _377  and  _378
REMARK  138  A    between atoms: _377  and  _380
REMARK  139  A    between atoms: _380  and  _381
REMARK  140  A    between atoms: _391  and  _393
REMARK  141  A    between atoms: _393  and  _394
REMARK  142  A    between atoms: _393  and  _396
REMARK  143  A    between atoms: _396  and  _397
REMARK  144  A    between atoms: _402  and  _404
REMARK  145  A    between atoms: _404  and  _405
REMARK  146  A    between atoms: _404  and  _407
REMARK  147  A    between atoms: _407  and  _408
REMARK  148  A    between atoms: _408  and  _409
REMARK  149  A    between atoms: _409  and  _410
REMARK                            x       y       z     vdW  Elec       q    Type
REMARK                         _______ _______ _______ _____ _____    ______ ____
ROOT
ATOM      1  O   HOH     1      18.934   6.810  13.859  0.00  0.00    +0.000 OA
ENDROOT
TORSDOF 0
REMARK  Name = ../refined-set-2016/3s77/3s77_pocket.pdb
REMARK  149 active torsions:
REMARK  status: ('A' for Active; 'I' for Inactive)
REMARK    1  A    between atoms: _1  and  _3
REMARK    2  A    between atoms: _3  and  _4
REMARK    3  A    between atoms: _3  and  _6
REMARK    4  A    between atoms: _6  and  _7
REMARK    5  A    between atoms: _17  and  _19
REMARK    6  A    between atoms: _19  and  _20
REMARK    7  A    between atoms: _19  and  _22
REMARK    8  A    between atoms: _22  and  _23
REMARK    9  A    between atoms: _28  and  _29
REMARK   10  A    between atoms: _31  and  _33
REMARK   11  A    between atoms: _33  and  _34
REMARK   12  A    between atoms: _33  and  _36
REMARK   13  A    between atoms: _36  and  _37
REMARK   14  A    between atoms: _40  and  _41
REMARK   15  A    between atoms: _46  and  _48
REMARK   16  A    between atoms: _48  and  _49
REMARK   17  A    between atoms: _48  and  _51
REMARK   18  A    between atoms: _51  and  _52
REMARK   19  A    between atoms: _57  and  _59
REMARK   20  A    between atoms: _59  and  _60
REMARK   21  A    between atoms: _59  and  _62
REMARK   22  A    between atoms: _62  and  _63
REMARK   23  A    between atoms: _68  and  _70
REMARK   24  A    between atoms: _70  and  _71
REMARK   25  A    between atoms: _74  and  _76
REMARK   26  A    between atoms: _76  and  _77
REMARK   27  A    between atoms: _76  and  _79
REMARK   28  A    between atoms: _79  and  _80
REMARK   29  A    between atoms: _85  and  _87
REMARK   30  A    between atoms: _87  and  _88
REMARK   31  A    between atoms: _87  and  _90
REMARK   32  A    between atoms: _90  and  _91
REMARK   33  A    between atoms: _94  and  _96
REMARK   34  A    between atoms: _96  and  _97
REMARK   35  A    between atoms: _96  and  _99
REMARK   36  A    between atoms: _99  and  _100
REMARK   37  A    between atoms: _100  and  _101
REMARK   38  A    between atoms: _106  and  _108
REMARK   39  A    between atoms: _108  and  _109
REMARK   40  A    between atoms: _108  and  _111
REMARK   41  A    between atoms: _111  and  _112
REMARK   42  A    between atoms: _118  and  _120
REMARK   43  A    between atoms: _131  and  _134
REMARK   44  A    between atoms: _134  and  _135
REMARK   45  A    between atoms: _143  and  _144
REMARK   46  A    between atoms: _152  and  _154
REMARK   47  A    between atoms: _154  and  _155
REMARK   48  A    between atoms: _154  and  _157
REMARK   49  A    between atoms: _157  and  _158
REMARK   50  A    between atoms: _158  and  _159
REMARK   51  A    between atoms: _162  and  _164
REMARK   52  A    between atoms: _164  and  _165
REMARK   53  A    between atoms: _164  and  _167
REMARK   54  A    between atoms: _167  and  _168
REMARK   55  A    between atoms: _173  and  _175
REMARK   56  A    between atoms: _175  and  _176
REMARK   57  A    between atoms: _175  and  _178
REMARK   58  A    between atoms: _178  and  _179
REMARK   59  A    between atoms: _179  and  _180
REMARK   60  A    between atoms: _183  and  _185
REMARK   61  A    between atoms: _185  and  _186
REMARK   62  A    between atoms: _185  and  _188
REMARK   63  A    between atoms: _188  and  _189
REMARK   64  A    between atoms: _192  and  _194
REMARK   65  A    between atoms: _194  and  _195
REMARK   66  A    between atoms: _194  and  _197
REMARK   67  A    between atoms: _197  and  _198
REMARK   68  A    between atoms: _199  and  ZN_419
REMARK   69  A    between atoms: _203  and  _205
REMARK   70  A    between atoms: _205  and  _206
REMARK   71  A    between atoms: _205  and  _208
REMARK   72  A    between atoms: _208  and  _209
REMARK   73  A    between atoms: _212  and  _214
REMARK   74  A    between atoms: _214  and  _215
REMARK   75  A    between atoms: _214  and  _217
REMARK   76  A    between atoms: _220  and  _222
REMARK   77  A    between atoms: _222  and  _223
REMARK   78  A    between atoms: _222  and  _225
REMARK   79  A    between atoms: _225  and  _226
REMARK   80  A    between atoms: _231  and  _233
REMARK   81  A    between atoms: _233  and  _234
REMARK   82  A    between atoms: _233  and  _236
REMARK   83  A    between atoms: _236  and  _237
REMARK   84  A    between atoms: _243  and  _245
REMARK   85  A    between atoms: _245  and  _246
REMARK   86  A    between atoms: _245  and  _248
REMARK   87  A    between atoms: _251  and  _253
REMARK   88  A    between atoms: _253  and  _254
REMARK   89  A    between atoms: _253  and  _256
REMARK   90  A    between atoms: _256  and  _257
REMARK   91  A    between atoms: _260  and  _262
REMARK   92  A    between atoms: _262  and  _263
REMARK   93  A    between atoms: _266  and  _268
REMARK   94  A    between atoms: _268  and  _269
REMARK   95  A    between atoms: _268  and  _271
REMARK   96  A    between atoms: _274  and  _276
REMARK   97  A    between atoms: _276  and  _277
REMARK   98  A    between atoms: _276  and  _279
REMARK   99  A    between atoms: _279  and  _280
REMARK  100  A    between atoms: _283  and  _285
REMARK  101  A    between atoms: _285  and  _286
REMARK  102  A    between atoms: _288  and  _290
REMARK  103  A    between atoms: _290  and  _291
REMARK  104  A    between atoms: _293  and  _295
REMARK  105  A    between atoms: _295  and  _296
REMARK  106  A    between atoms: _295  and  _298
REMARK  107  A    between atoms: _298  and  _299
REMARK  108  A    between atoms: _301  and  _303
REMARK  109  A    between atoms: _303  and  _304
REMARK  110  A    between atoms: _303  and  _306
REMARK  111  A    between atoms: _306  and  _307
REMARK  112  A    between atoms: _310  and  _312
REMARK  113  A    between atoms: _312  and  _313
REMARK  114  A    between atoms: _312  and  _315
REMARK  115  A    between atoms: _315  and  _316
REMARK  116  A    between atoms: _319  and  _321
REMARK  117  A    between atoms: _321  and  _322
REMARK  118  A    between atoms: _321  and  _324
REMARK  119  A    between atoms: _324  and  _325
REMARK  120  A    between atoms: _329  and  _330
REMARK  121  A    between atoms: _336  and  _337
REMARK  122  A    between atoms: _342  and  _344
REMARK  123  A    between atoms: _344  and  _345
REMARK  124  A    between atoms: _344  and  _347
REMARK  125  A    between atoms: _347  and  _348
REMARK  126  A    between atoms: _351  and  _353
REMARK  127  A    between atoms: _353  and  _354
REMARK  128  A    between atoms: _353  and  _356
REMARK  129  A    between atoms: _356  and  _357
REMARK  130  A    between atoms: _360  and  _362
REMARK  131  A    between atoms: _362  and  _363
REMARK  132  A    between atoms: _362  and  _365
REMARK  133  A    between atoms: _367  and  _369
REMARK  134  A    between atoms: _369  and  _370
REMARK  135  A    between atoms: _369  and  _372
REMARK  136  A    between atoms: _375  and  _377
REMARK  137  A    between atoms: _377  and  _378
REMARK  138  A    between atoms: _377  and  _380
REMARK  139  A    between atoms: _380  and  _381
REMARK  140  A    between atoms: _391  and  _393
REMARK  141  A    between atoms: _393  and  _394
REMARK  142  A    between atoms: _393  and  _396
REMARK  143  A    between atoms: _396  and  _397
REMARK  144  A    between atoms: _402  and  _404
REMARK  145  A    between atoms: _404  and  _405
REMARK  146  A    between atoms: _404  and  _407
REMARK  147  A    between atoms: _407  and  _408
REMARK  148  A    between atoms: _408  and  _409
REMARK  149  A    between atoms: _409  and  _410
REMARK                            x       y       z     vdW  Elec       q    Type
REMARK                         _______ _______ _______ _____ _____    ______ ____
ROOT
ATOM      1  O   HOH     1      17.289  -0.898  11.445  0.00  0.00    +0.000 OA
ENDROOT
TORSDOF 0
REMARK  Name = ../refined-set-2016/3s77/3s77_pocket.pdb
REMARK  149 active torsions:
REMARK  status: ('A' for Active; 'I' for Inactive)
REMARK    1  A    between atoms: _1  and  _3
REMARK    2  A    between atoms: _3  and  _4
REMARK    3  A    between atoms: _3  and  _6
REMARK    4  A    between atoms: _6  and  _7
REMARK    5  A    between atoms: _17  and  _19
REMARK    6  A    between atoms: _19  and  _20
REMARK    7  A    between atoms: _19  and  _22
REMARK    8  A    between atoms: _22  and  _23
REMARK    9  A    between atoms: _28  and  _29
REMARK   10  A    between atoms: _31  and  _33
REMARK   11  A    between atoms: _33  and  _34
REMARK   12  A    between atoms: _33  and  _36
REMARK   13  A    between atoms: _36  and  _37
REMARK   14  A    between atoms: _40  and  _41
REMARK   15  A    between atoms: _46  and  _48
REMARK   16  A    between atoms: _48  and  _49
REMARK   17  A    between atoms: _48  and  _51
REMARK   18  A    between atoms: _51  and  _52
REMARK   19  A    between atoms: _57  and  _59
REMARK   20  A    between atoms: _59  and  _60
REMARK   21  A    between atoms: _59  and  _62
REMARK   22  A    between atoms: _62  and  _63
REMARK   23  A    between atoms: _68  and  _70
REMARK   24  A    between atoms: _70  and  _71
REMARK   25  A    between atoms: _74  and  _76
REMARK   26  A    between atoms: _76  and  _77
REMARK   27  A    between atoms: _76  and  _79
REMARK   28  A    between atoms: _79  and  _80
REMARK   29  A    between atoms: _85  and  _87
REMARK   30  A    between atoms: _87  and  _88
REMARK   31  A    between atoms: _87  and  _90
REMARK   32  A    between atoms: _90  and  _91
REMARK   33  A    between atoms: _94  and  _96
REMARK   34  A    between atoms: _96  and  _97
REMARK   35  A    between atoms: _96  and  _99
REMARK   36  A    between atoms: _99  and  _100
REMARK   37  A    between atoms: _100  and  _101
REMARK   38  A    between atoms: _106  and  _108
REMARK   39  A    between atoms: _108  and  _109
REMARK   40  A    between atoms: _108  and  _111
REMARK   41  A    between atoms: _111  and  _112
REMARK   42  A    between atoms: _118  and  _120
REMARK   43  A    between atoms: _131  and  _134
REMARK   44  A    between atoms: _134  and  _135
REMARK   45  A    between atoms: _143  and  _144
REMARK   46  A    between atoms: _152  and  _154
REMARK   47  A    between atoms: _154  and  _155
REMARK   48  A    between atoms: _154  and  _157
REMARK   49  A    between atoms: _157  and  _158
REMARK   50  A    between atoms: _158  and  _159
REMARK   51  A    between atoms: _162  and  _164
REMARK   52  A    between atoms: _164  and  _165
REMARK   53  A    between atoms: _164  and  _167
REMARK   54  A    between atoms: _167  and  _168
REMARK   55  A    between atoms: _173  and  _175
REMARK   56  A    between atoms: _175  and  _176
REMARK   57  A    between atoms: _175  and  _178
REMARK   58  A    between atoms: _178  and  _179
REMARK   59  A    between atoms: _179  and  _180
REMARK   60  A    between atoms: _183  and  _185
REMARK   61  A    between atoms: _185  and  _186
REMARK   62  A    between atoms: _185  and  _188
REMARK   63  A    between atoms: _188  and  _189
REMARK   64  A    between atoms: _192  and  _194
REMARK   65  A    between atoms: _194  and  _195
REMARK   66  A    between atoms: _194  and  _197
REMARK   67  A    between atoms: _197  and  _198
REMARK   68  A    between atoms: _199  and  ZN_419
REMARK   69  A    between atoms: _203  and  _205
REMARK   70  A    between atoms: _205  and  _206
REMARK   71  A    between atoms: _205  and  _208
REMARK   72  A    between atoms: _208  and  _209
REMARK   73  A    between atoms: _212  and  _214
REMARK   74  A    between atoms: _214  and  _215
REMARK   75  A    between atoms: _214  and  _217
REMARK   76  A    between atoms: _220  and  _222
REMARK   77  A    between atoms: _222  and  _223
REMARK   78  A    between atoms: _222  and  _225
REMARK   79  A    between atoms: _225  and  _226
REMARK   80  A    between atoms: _231  and  _233
REMARK   81  A    between atoms: _233  and  _234
REMARK   82  A    between atoms: _233  and  _236
REMARK   83  A    between atoms: _236  and  _237
REMARK   84  A    between atoms: _243  and  _245
REMARK   85  A    between atoms: _245  and  _246
REMARK   86  A    between atoms: _245  and  _248
REMARK   87  A    between atoms: _251  and  _253
REMARK   88  A    between atoms: _253  and  _254
REMARK   89  A    between atoms: _253  and  _256
REMARK   90  A    between atoms: _256  and  _257
REMARK   91  A    between atoms: _260  and  _262
REMARK   92  A    between atoms: _262  and  _263
REMARK   93  A    between atoms: _266  and  _268
REMARK   94  A    between atoms: _268  and  _269
REMARK   95  A    between atoms: _268  and  _271
REMARK   96  A    between atoms: _274  and  _276
REMARK   97  A    between atoms: _276  and  _277
REMARK   98  A    between atoms: _276  and  _279
REMARK   99  A    between atoms: _279  and  _280
REMARK  100  A    between atoms: _283  and  _285
REMARK  101  A    between atoms: _285  and  _286
REMARK  102  A    between atoms: _288  and  _290
REMARK  103  A    between atoms: _290  and  _291
REMARK  104  A    between atoms: _293  and  _295
REMARK  105  A    between atoms: _295  and  _296
REMARK  106  A    between atoms: _295  and  _298
REMARK  107  A    between atoms: _298  and  _299
REMARK  108  A    between atoms: _301  and  _303
REMARK  109  A    between atoms: _303  and  _304
REMARK  110  A    between atoms: _303  and  _306
REMARK  111  A    between atoms: _306  and  _307
REMARK  112  A    between atoms: _310  and  _312
REMARK  113  A    between atoms: _312  and  _313
REMARK  114  A    between atoms: _312  and  _315
REMARK  115  A    between atoms: _315  and  _316
REMARK  116  A    between atoms: _319  and  _321
REMARK  117  A    between atoms: _321  and  _322
REMARK  118  A    between atoms: _321  and  _324
REMARK  119  A    between atoms: _324  and  _325
REMARK  120  A    between atoms: _329  and  _330
REMARK  121  A    between atoms: _336  and  _337
REMARK  122  A    between atoms: _342  and  _344
REMARK  123  A    between atoms: _344  and  _345
REMARK  124  A    between atoms: _344  and  _347
REMARK  125  A    between atoms: _347  and  _348
REMARK  126  A    between atoms: _351  and  _353
REMARK  127  A    between atoms: _353  and  _354
REMARK  128  A    between atoms: _353  and  _356
REMARK  129  A    between atoms: _356  and  _357
REMARK  130  A    between atoms: _360  and  _362
REMARK  131  A    between atoms: _362  and  _363
REMARK  132  A    between atoms: _362  and  _365
REMARK  133  A    between atoms: _367  and  _369
REMARK  134  A    between atoms: _369  and  _370
REMARK  135  A    between atoms: _369  and  _372
REMARK  136  A    between atoms: _375  and  _377
REMARK  137  A    between atoms: _377  and  _378
REMARK  138  A    between atoms: _377  and  _380
REMARK  139  A    between atoms: _380  and  _381
REMARK  140  A    between atoms: _391  and  _393
REMARK  141  A    between atoms: _393  and  _394
REMARK  142  A    between atoms: _393  and  _396
REMARK  143  A    between atoms: _396  and  _397
REMARK  144  A    between atoms: _402  and  _404
REMARK  145  A    between atoms: _404  and  _405
REMARK  146  A    between atoms: _404  and  _407
REMARK  147  A    between atoms: _407  and  _408
REMARK  148  A    between atoms: _408  and  _409
REMARK  149  A    between atoms: _409  and  _410
REMARK                            x       y       z     vdW  Elec       q    Type
REMARK                         _______ _______ _______ _____ _____    ______ ____
ROOT
ATOM      1  O   HOH     1      15.834   2.419  12.156  0.00  0.00    +0.000 OA
ENDROOT
TORSDOF 0
REMARK  Name = ../refined-set-2016/3s77/3s77_pocket.pdb
REMARK  149 active torsions:
REMARK  status: ('A' for Active; 'I' for Inactive)
REMARK    1  A    between atoms: _1  and  _3
REMARK    2  A    between atoms: _3  and  _4
REMARK    3  A    between atoms: _3  and  _6
REMARK    4  A    between atoms: _6  and  _7
REMARK    5  A    between atoms: _17  and  _19
REMARK    6  A    between atoms: _19  and  _20
REMARK    7  A    between atoms: _19  and  _22
REMARK    8  A    between atoms: _22  and  _23
REMARK    9  A    between atoms: _28  and  _29
REMARK   10  A    between atoms: _31  and  _33
REMARK   11  A    between atoms: _33  and  _34
REMARK   12  A    between atoms: _33  and  _36
REMARK   13  A    between atoms: _36  and  _37
REMARK   14  A    between atoms: _40  and  _41
REMARK   15  A    between atoms: _46  and  _48
REMARK   16  A    between atoms: _48  and  _49
REMARK   17  A    between atoms: _48  and  _51
REMARK   18  A    between atoms: _51  and  _52
REMARK   19  A    between atoms: _57  and  _59
REMARK   20  A    between atoms: _59  and  _60
REMARK   21  A    between atoms: _59  and  _62
REMARK   22  A    between atoms: _62  and  _63
REMARK   23  A    between atoms: _68  and  _70
REMARK   24  A    between atoms: _70  and  _71
REMARK   25  A    between atoms: _74  and  _76
REMARK   26  A    between atoms: _76  and  _77
REMARK   27  A    between atoms: _76  and  _79
REMARK   28  A    between atoms: _79  and  _80
REMARK   29  A    between atoms: _85  and  _87
REMARK   30  A    between atoms: _87  and  _88
REMARK   31  A    between atoms: _87  and  _90
REMARK   32  A    between atoms: _90  and  _91
REMARK   33  A    between atoms: _94  and  _96
REMARK   34  A    between atoms: _96  and  _97
REMARK   35  A    between atoms: _96  and  _99
REMARK   36  A    between atoms: _99  and  _100
REMARK   37  A    between atoms: _100  and  _101
REMARK   38  A    between atoms: _106  and  _108
REMARK   39  A    between atoms: _108  and  _109
REMARK   40  A    between atoms: _108  and  _111
REMARK   41  A    between atoms: _111  and  _112
REMARK   42  A    between atoms: _118  and  _120
REMARK   43  A    between atoms: _131  and  _134
REMARK   44  A    between atoms: _134  and  _135
REMARK   45  A    between atoms: _143  and  _144
REMARK   46  A    between atoms: _152  and  _154
REMARK   47  A    between atoms: _154  and  _155
REMARK   48  A    between atoms: _154  and  _157
REMARK   49  A    between atoms: _157  and  _158
REMARK   50  A    between atoms: _158  and  _159
REMARK   51  A    between atoms: _162  and  _164
REMARK   52  A    between atoms: _164  and  _165
REMARK   53  A    between atoms: _164  and  _167
REMARK   54  A    between atoms: _167  and  _168
REMARK   55  A    between atoms: _173  and  _175
REMARK   56  A    between atoms: _175  and  _176
REMARK   57  A    between atoms: _175  and  _178
REMARK   58  A    between atoms: _178  and  _179
REMARK   59  A    between atoms: _179  and  _180
REMARK   60  A    between atoms: _183  and  _185
REMARK   61  A    between atoms: _185  and  _186
REMARK   62  A    between atoms: _185  and  _188
REMARK   63  A    between atoms: _188  and  _189
REMARK   64  A    between atoms: _192  and  _194
REMARK   65  A    between atoms: _194  and  _195
REMARK   66  A    between atoms: _194  and  _197
REMARK   67  A    between atoms: _197  and  _198
REMARK   68  A    between atoms: _199  and  ZN_419
REMARK   69  A    between atoms: _203  and  _205
REMARK   70  A    between atoms: _205  and  _206
REMARK   71  A    between atoms: _205  and  _208
REMARK   72  A    between atoms: _208  and  _209
REMARK   73  A    between atoms: _212  and  _214
REMARK   74  A    between atoms: _214  and  _215
REMARK   75  A    between atoms: _214  and  _217
REMARK   76  A    between atoms: _220  and  _222
REMARK   77  A    between atoms: _222  and  _223
REMARK   78  A    between atoms: _222  and  _225
REMARK   79  A    between atoms: _225  and  _226
REMARK   80  A    between atoms: _231  and  _233
REMARK   81  A    between atoms: _233  and  _234
REMARK   82  A    between atoms: _233  and  _236
REMARK   83  A    between atoms: _236  and  _237
REMARK   84  A    between atoms: _243  and  _245
REMARK   85  A    between atoms: _245  and  _246
REMARK   86  A    between atoms: _245  and  _248
REMARK   87  A    between atoms: _251  and  _253
REMARK   88  A    between atoms: _253  and  _254
REMARK   89  A    between atoms: _253  and  _256
REMARK   90  A    between atoms: _256  and  _257
REMARK   91  A    between atoms: _260  and  _262
REMARK   92  A    between atoms: _262  and  _263
REMARK   93  A    between atoms: _266  and  _268
REMARK   94  A    between atoms: _268  and  _269
REMARK   95  A    between atoms: _268  and  _271
REMARK   96  A    between atoms: _274  and  _276
REMARK   97  A    between atoms: _276  and  _277
REMARK   98  A    between atoms: _276  and  _279
REMARK   99  A    between atoms: _279  and  _280
REMARK  100  A    between atoms: _283  and  _285
REMARK  101  A    between atoms: _285  and  _286
REMARK  102  A    between atoms: _288  and  _290
REMARK  103  A    between atoms: _290  and  _291
REMARK  104  A    between atoms: _293  and  _295
REMARK  105  A    between atoms: _295  and  _296
REMARK  106  A    between atoms: _295  and  _298
REMARK  107  A    between atoms: _298  and  _299
REMARK  108  A    between atoms: _301  and  _303
REMARK  109  A    between atoms: _303  and  _304
REMARK  110  A    between atoms: _303  and  _306
REMARK  111  A    between atoms: _306  and  _307
REMARK  112  A    between atoms: _310  and  _312
REMARK  113  A    between atoms: _312  and  _313
REMARK  114  A    between atoms: _312  and  _315
REMARK  115  A    between atoms: _315  and  _316
REMARK  116  A    between atoms: _319  and  _321
REMARK  117  A    between atoms: _321  and  _322
REMARK  118  A    between atoms: _321  and  _324
REMARK  119  A    between atoms: _324  and  _325
REMARK  120  A    between atoms: _329  and  _330
REMARK  121  A    between atoms: _336  and  _337
REMARK  122  A    between atoms: _342  and  _344
REMARK  123  A    between atoms: _344  and  _345
REMARK  124  A    between atoms: _344  and  _347
REMARK  125  A    between atoms: _347  and  _348
REMARK  126  A    between atoms: _351  and  _353
REMARK  127  A    between atoms: _353  and  _354
REMARK  128  A    between atoms: _353  and  _356
REMARK  129  A    between atoms: _356  and  _357
REMARK  130  A    between atoms: _360  and  _362
REMARK  131  A    between atoms: _362  and  _363
REMARK  132  A    between atoms: _362  and  _365
REMARK  133  A    between atoms: _367  and  _369
REMARK  134  A    between atoms: _369  and  _370
REMARK  135  A    between atoms: _369  and  _372
REMARK  136  A    between atoms: _375  and  _377
REMARK  137  A    between atoms: _377  and  _378
REMARK  138  A    between atoms: _377  and  _380
REMARK  139  A    between atoms: _380  and  _381
REMARK  140  A    between atoms: _391  and  _393
REMARK  141  A    between atoms: _393  and  _394
REMARK  142  A    between atoms: _393  and  _396
REMARK  143  A    between atoms: _396  and  _397
REMARK  144  A    between atoms: _402  and  _404
REMARK  145  A    between atoms: _404  and  _405
REMARK  146  A    between atoms: _404  and  _407
REMARK  147  A    between atoms: _407  and  _408
REMARK  148  A    between atoms: _408  and  _409
REMARK  149  A    between atoms: _409  and  _410
REMARK                            x       y       z     vdW  Elec       q    Type
REMARK                         _______ _______ _______ _____ _____    ______ ____
ROOT
ATOM      1  O   HOH     1      20.423   3.805  13.555  0.00  0.00    +0.000 OA
ENDROOT
TORSDOF 0
REMARK  Name = ../refined-set-2016/3s77/3s77_pocket.pdb
REMARK  149 active torsions:
REMARK  status: ('A' for Active; 'I' for Inactive)
REMARK    1  A    between atoms: _1  and  _3
REMARK    2  A    between atoms: _3  and  _4
REMARK    3  A    between atoms: _3  and  _6
REMARK    4  A    between atoms: _6  and  _7
REMARK    5  A    between atoms: _17  and  _19
REMARK    6  A    between atoms: _19  and  _20
REMARK    7  A    between atoms: _19  and  _22
REMARK    8  A    between atoms: _22  and  _23
REMARK    9  A    between atoms: _28  and  _29
REMARK   10  A    between atoms: _31  and  _33
REMARK   11  A    between atoms: _33  and  _34
REMARK   12  A    between atoms: _33  and  _36
REMARK   13  A    between atoms: _36  and  _37
REMARK   14  A    between atoms: _40  and  _41
REMARK   15  A    between atoms: _46  and  _48
REMARK   16  A    between atoms: _48  and  _49
REMARK   17  A    between atoms: _48  and  _51
REMARK   18  A    between atoms: _51  and  _52
REMARK   19  A    between atoms: _57  and  _59
REMARK   20  A    between atoms: _59  and  _60
REMARK   21  A    between atoms: _59  and  _62
REMARK   22  A    between atoms: _62  and  _63
REMARK   23  A    between atoms: _68  and  _70
REMARK   24  A    between atoms: _70  and  _71
REMARK   25  A    between atoms: _74  and  _76
REMARK   26  A    between atoms: _76  and  _77
REMARK   27  A    between atoms: _76  and  _79
REMARK   28  A    between atoms: _79  and  _80
REMARK   29  A    between atoms: _85  and  _87
REMARK   30  A    between atoms: _87  and  _88
REMARK   31  A    between atoms: _87  and  _90
REMARK   32  A    between atoms: _90  and  _91
REMARK   33  A    between atoms: _94  and  _96
REMARK   34  A    between atoms: _96  and  _97
REMARK   35  A    between atoms: _96  and  _99
REMARK   36  A    between atoms: _99  and  _100
REMARK   37  A    between atoms: _100  and  _101
REMARK   38  A    between atoms: _106  and  _108
REMARK   39  A    between atoms: _108  and  _109
REMARK   40  A    between atoms: _108  and  _111
REMARK   41  A    between atoms: _111  and  _112
REMARK   42  A    between atoms: _118  and  _120
REMARK   43  A    between atoms: _131  and  _134
REMARK   44  A    between atoms: _134  and  _135
REMARK   45  A    between atoms: _143  and  _144
REMARK   46  A    between atoms: _152  and  _154
REMARK   47  A    between atoms: _154  and  _155
REMARK   48  A    between atoms: _154  and  _157
REMARK   49  A    between atoms: _157  and  _158
REMARK   50  A    between atoms: _158  and  _159
REMARK   51  A    between atoms: _162  and  _164
REMARK   52  A    between atoms: _164  and  _165
REMARK   53  A    between atoms: _164  and  _167
REMARK   54  A    between atoms: _167  and  _168
REMARK   55  A    between atoms: _173  and  _175
REMARK   56  A    between atoms: _175  and  _176
REMARK   57  A    between atoms: _175  and  _178
REMARK   58  A    between atoms: _178  and  _179
REMARK   59  A    between atoms: _179  and  _180
REMARK   60  A    between atoms: _183  and  _185
REMARK   61  A    between atoms: _185  and  _186
REMARK   62  A    between atoms: _185  and  _188
REMARK   63  A    between atoms: _188  and  _189
REMARK   64  A    between atoms: _192  and  _194
REMARK   65  A    between atoms: _194  and  _195
REMARK   66  A    between atoms: _194  and  _197
REMARK   67  A    between atoms: _197  and  _198
REMARK   68  A    between atoms: _199  and  ZN_419
REMARK   69  A    between atoms: _203  and  _205
REMARK   70  A    between atoms: _205  and  _206
REMARK   71  A    between atoms: _205  and  _208
REMARK   72  A    between atoms: _208  and  _209
REMARK   73  A    between atoms: _212  and  _214
REMARK   74  A    between atoms: _214  and  _215
REMARK   75  A    between atoms: _214  and  _217
REMARK   76  A    between atoms: _220  and  _222
REMARK   77  A    between atoms: _222  and  _223
REMARK   78  A    between atoms: _222  and  _225
REMARK   79  A    between atoms: _225  and  _226
REMARK   80  A    between atoms: _231  and  _233
REMARK   81  A    between atoms: _233  and  _234
REMARK   82  A    between atoms: _233  and  _236
REMARK   83  A    between atoms: _236  and  _237
REMARK   84  A    between atoms: _243  and  _245
REMARK   85  A    between atoms: _245  and  _246
REMARK   86  A    between atoms: _245  and  _248
REMARK   87  A    between atoms: _251  and  _253
REMARK   88  A    between atoms: _253  and  _254
REMARK   89  A    between atoms: _253  and  _256
REMARK   90  A    between atoms: _256  and  _257
REMARK   91  A    between atoms: _260  and  _262
REMARK   92  A    between atoms: _262  and  _263
REMARK   93  A    between atoms: _266  and  _268
REMARK   94  A    between atoms: _268  and  _269
REMARK   95  A    between atoms: _268  and  _271
REMARK   96  A    between atoms: _274  and  _276
REMARK   97  A    between atoms: _276  and  _277
REMARK   98  A    between atoms: _276  and  _279
REMARK   99  A    between atoms: _279  and  _280
REMARK  100  A    between atoms: _283  and  _285
REMARK  101  A    between atoms: _285  and  _286
REMARK  102  A    between atoms: _288  and  _290
REMARK  103  A    between atoms: _290  and  _291
REMARK  104  A    between atoms: _293  and  _295
REMARK  105  A    between atoms: _295  and  _296
REMARK  106  A    between atoms: _295  and  _298
REMARK  107  A    between atoms: _298  and  _299
REMARK  108  A    between atoms: _301  and  _303
REMARK  109  A    between atoms: _303  and  _304
REMARK  110  A    between atoms: _303  and  _306
REMARK  111  A    between atoms: _306  and  _307
REMARK  112  A    between atoms: _310  and  _312
REMARK  113  A    between atoms: _312  and  _313
REMARK  114  A    between atoms: _312  and  _315
REMARK  115  A    between atoms: _315  and  _316
REMARK  116  A    between atoms: _319  and  _321
REMARK  117  A    between atoms: _321  and  _322
REMARK  118  A    between atoms: _321  and  _324
REMARK  119  A    between atoms: _324  and  _325
REMARK  120  A    between atoms: _329  and  _330
REMARK  121  A    between atoms: _336  and  _337
REMARK  122  A    between atoms: _342  and  _344
REMARK  123  A    between atoms: _344  and  _345
REMARK  124  A    between atoms: _344  and  _347
REMARK  125  A    between atoms: _347  and  _348
REMARK  126  A    between atoms: _351  and  _353
REMARK  127  A    between atoms: _353  and  _354
REMARK  128  A    between atoms: _353  and  _356
REMARK  129  A    between atoms: _356  and  _357
REMARK  130  A    between atoms: _360  and  _362
REMARK  131  A    between atoms: _362  and  _363
REMARK  132  A    between atoms: _362  and  _365
REMARK  133  A    between atoms: _367  and  _369
REMARK  134  A    between atoms: _369  and  _370
REMARK  135  A    between atoms: _369  and  _372
REMARK  136  A    between atoms: _375  and  _377
REMARK  137  A    between atoms: _377  and  _378
REMARK  138  A    between atoms: _377  and  _380
REMARK  139  A    between atoms: _380  and  _381
REMARK  140  A    between atoms: _391  and  _393
REMARK  141  A    between atoms: _393  and  _394
REMARK  142  A    between atoms: _393  and  _396
REMARK  143  A    between atoms: _396  and  _397
REMARK  144  A    between atoms: _402  and  _404
REMARK  145  A    between atoms: _404  and  _405
REMARK  146  A    between atoms: _404  and  _407
REMARK  147  A    between atoms: _407  and  _408
REMARK  148  A    between atoms: _408  and  _409
REMARK  149  A    between atoms: _409  and  _410
REMARK                            x       y       z     vdW  Elec       q    Type
REMARK                         _______ _______ _______ _____ _____    ______ ____
ROOT
ATOM      1  O   HOH     1      14.790   6.801  11.969  0.00  0.00    +0.000 OA
ENDROOT
TORSDOF 0
REMARK  Name = ../refined-set-2016/3s77/3s77_pocket.pdb
REMARK  149 active torsions:
REMARK  status: ('A' for Active; 'I' for Inactive)
REMARK    1  A    between atoms: _1  and  _3
REMARK    2  A    between atoms: _3  and  _4
REMARK    3  A    between atoms: _3  and  _6
REMARK    4  A    between atoms: _6  and  _7
REMARK    5  A    between atoms: _17  and  _19
REMARK    6  A    between atoms: _19  and  _20
REMARK    7  A    between atoms: _19  and  _22
REMARK    8  A    between atoms: _22  and  _23
REMARK    9  A    between atoms: _28  and  _29
REMARK   10  A    between atoms: _31  and  _33
REMARK   11  A    between atoms: _33  and  _34
REMARK   12  A    between atoms: _33  and  _36
REMARK   13  A    between atoms: _36  and  _37
REMARK   14  A    between atoms: _40  and  _41
REMARK   15  A    between atoms: _46  and  _48
REMARK   16  A    between atoms: _48  and  _49
REMARK   17  A    between atoms: _48  and  _51
REMARK   18  A    between atoms: _51  and  _52
REMARK   19  A    between atoms: _57  and  _59
REMARK   20  A    between atoms: _59  and  _60
REMARK   21  A    between atoms: _59  and  _62
REMARK   22  A    between atoms: _62  and  _63
REMARK   23  A    between atoms: _68  and  _70
REMARK   24  A    between atoms: _70  and  _71
REMARK   25  A    between atoms: _74  and  _76
REMARK   26  A    between atoms: _76  and  _77
REMARK   27  A    between atoms: _76  and  _79
REMARK   28  A    between atoms: _79  and  _80
REMARK   29  A    between atoms: _85  and  _87
REMARK   30  A    between atoms: _87  and  _88
REMARK   31  A    between atoms: _87  and  _90
REMARK   32  A    between atoms: _90  and  _91
REMARK   33  A    between atoms: _94  and  _96
REMARK   34  A    between atoms: _96  and  _97
REMARK   35  A    between atoms: _96  and  _99
REMARK   36  A    between atoms: _99  and  _100
REMARK   37  A    between atoms: _100  and  _101
REMARK   38  A    between atoms: _106  and  _108
REMARK   39  A    between atoms: _108  and  _109
REMARK   40  A    between atoms: _108  and  _111
REMARK   41  A    between atoms: _111  and  _112
REMARK   42  A    between atoms: _118  and  _120
REMARK   43  A    between atoms: _131  and  _134
REMARK   44  A    between atoms: _134  and  _135
REMARK   45  A    between atoms: _143  and  _144
REMARK   46  A    between atoms: _152  and  _154
REMARK   47  A    between atoms: _154  and  _155
REMARK   48  A    between atoms: _154  and  _157
REMARK   49  A    between atoms: _157  and  _158
REMARK   50  A    between atoms: _158  and  _159
REMARK   51  A    between atoms: _162  and  _164
REMARK   52  A    between atoms: _164  and  _165
REMARK   53  A    between atoms: _164  and  _167
REMARK   54  A    between atoms: _167  and  _168
REMARK   55  A    between atoms: _173  and  _175
REMARK   56  A    between atoms: _175  and  _176
REMARK   57  A    between atoms: _175  and  _178
REMARK   58  A    between atoms: _178  and  _179
REMARK   59  A    between atoms: _179  and  _180
REMARK   60  A    between atoms: _183  and  _185
REMARK   61  A    between atoms: _185  and  _186
REMARK   62  A    between atoms: _185  and  _188
REMARK   63  A    between atoms: _188  and  _189
REMARK   64  A    between atoms: _192  and  _194
REMARK   65  A    between atoms: _194  and  _195
REMARK   66  A    between atoms: _194  and  _197
REMARK   67  A    between atoms: _197  and  _198
REMARK   68  A    between atoms: _199  and  ZN_419
REMARK   69  A    between atoms: _203  and  _205
REMARK   70  A    between atoms: _205  and  _206
REMARK   71  A    between atoms: _205  and  _208
REMARK   72  A    between atoms: _208  and  _209
REMARK   73  A    between atoms: _212  and  _214
REMARK   74  A    between atoms: _214  and  _215
REMARK   75  A    between atoms: _214  and  _217
REMARK   76  A    between atoms: _220  and  _222
REMARK   77  A    between atoms: _222  and  _223
REMARK   78  A    between atoms: _222  and  _225
REMARK   79  A    between atoms: _225  and  _226
REMARK   80  A    between atoms: _231  and  _233
REMARK   81  A    between atoms: _233  and  _234
REMARK   82  A    between atoms: _233  and  _236
REMARK   83  A    between atoms: _236  and  _237
REMARK   84  A    between atoms: _243  and  _245
REMARK   85  A    between atoms: _245  and  _246
REMARK   86  A    between atoms: _245  and  _248
REMARK   87  A    between atoms: _251  and  _253
REMARK   88  A    between atoms: _253  and  _254
REMARK   89  A    between atoms: _253  and  _256
REMARK   90  A    between atoms: _256  and  _257
REMARK   91  A    between atoms: _260  and  _262
REMARK   92  A    between atoms: _262  and  _263
REMARK   93  A    between atoms: _266  and  _268
REMARK   94  A    between atoms: _268  and  _269
REMARK   95  A    between atoms: _268  and  _271
REMARK   96  A    between atoms: _274  and  _276
REMARK   97  A    between atoms: _276  and  _277
REMARK   98  A    between atoms: _276  and  _279
REMARK   99  A    between atoms: _279  and  _280
REMARK  100  A    between atoms: _283  and  _285
REMARK  101  A    between atoms: _285  and  _286
REMARK  102  A    between atoms: _288  and  _290
REMARK  103  A    between atoms: _290  and  _291
REMARK  104  A    between atoms: _293  and  _295
REMARK  105  A    between atoms: _295  and  _296
REMARK  106  A    between atoms: _295  and  _298
REMARK  107  A    between atoms: _298  and  _299
REMARK  108  A    between atoms: _301  and  _303
REMARK  109  A    between atoms: _303  and  _304
REMARK  110  A    between atoms: _303  and  _306
REMARK  111  A    between atoms: _306  and  _307
REMARK  112  A    between atoms: _310  and  _312
REMARK  113  A    between atoms: _312  and  _313
REMARK  114  A    between atoms: _312  and  _315
REMARK  115  A    between atoms: _315  and  _316
REMARK  116  A    between atoms: _319  and  _321
REMARK  117  A    between atoms: _321  and  _322
REMARK  118  A    between atoms: _321  and  _324
REMARK  119  A    between atoms: _324  and  _325
REMARK  120  A    between atoms: _329  and  _330
REMARK  121  A    between atoms: _336  and  _337
REMARK  122  A    between atoms: _342  and  _344
REMARK  123  A    between atoms: _344  and  _345
REMARK  124  A    between atoms: _344  and  _347
REMARK  125  A    between atoms: _347  and  _348
REMARK  126  A    between atoms: _351  and  _353
REMARK  127  A    between atoms: _353  and  _354
REMARK  128  A    between atoms: _353  and  _356
REMARK  129  A    between atoms: _356  and  _357
REMARK  130  A    between atoms: _360  and  _362
REMARK  131  A    between atoms: _362  and  _363
REMARK  132  A    between atoms: _362  and  _365
REMARK  133  A    between atoms: _367  and  _369
REMARK  134  A    between atoms: _369  and  _370
REMARK  135  A    between atoms: _369  and  _372
REMARK  136  A    between atoms: _375  and  _377
REMARK  137  A    between atoms: _377  and  _378
REMARK  138  A    between atoms: _377  and  _380
REMARK  139  A    between atoms: _380  and  _381
REMARK  140  A    between atoms: _391  and  _393
REMARK  141  A    between atoms: _393  and  _394
REMARK  142  A    between atoms: _393  and  _396
REMARK  143  A    between atoms: _396  and  _397
REMARK  144  A    between atoms: _402  and  _404
REMARK  145  A    between atoms: _404  and  _405
REMARK  146  A    between atoms: _404  and  _407
REMARK  147  A    between atoms: _407  and  _408
REMARK  148  A    between atoms: _408  and  _409
REMARK  149  A    between atoms: _409  and  _410
REMARK                            x       y       z     vdW  Elec       q    Type
REMARK                         _______ _______ _______ _____ _____    ______ ____
ROOT
ATOM      1  O   HOH     1      17.011   5.410  10.734  0.00  0.00    +0.000 OA
ENDROOT
TORSDOF 0
