REMARK  Name = ../refined-set-2016/3tf6/3tf6_pocket.pdb
REMARK  133 active torsions:
REMARK  status: ('A' for Active; 'I' for Inactive)
REMARK    1  A    between atoms: _1  and  _3
REMARK    2  A    between atoms: _3  and  _4
REMARK    3  A    between atoms: _3  and  _6
REMARK    4  A    between atoms: _6  and  _7
REMARK    5  A    between atoms: _10  and  _12
REMARK    6  A    between atoms: _12  and  _13
REMARK    7  A    between atoms: _12  and  _15
REMARK    8  A    between atoms: _15  and  _16
REMARK    9  A    between atoms: _19  and  _21
REMARK   10  A    between atoms: _21  and  _22
REMARK   11  A    between atoms: _25  and  _27
REMARK   12  A    between atoms: _27  and  _28
REMARK   13  A    between atoms: _30  and  _32
REMARK   14  A    between atoms: _32  and  _33
REMARK   15  A    between atoms: _32  and  _35
REMARK   16  A    between atoms: _35  and  _36
REMARK   17  A    between atoms: _41  and  _43
REMARK   18  A    between atoms: _43  and  _44
REMARK   19  A    between atoms: _47  and  _49
REMARK   20  A    between atoms: _49  and  _50
REMARK   21  A    between atoms: _49  and  _52
REMARK   22  A    between atoms: _52  and  _53
REMARK   23  A    between atoms: _56  and  _58
REMARK   24  A    between atoms: _58  and  _59
REMARK   25  A    between atoms: _58  and  _61
REMARK   26  A    between atoms: _61  and  _62
REMARK   27  A    between atoms: _65  and  _67
REMARK   28  A    between atoms: _67  and  _68
REMARK   29  A    between atoms: _67  and  _70
REMARK   30  A    between atoms: _70  and  _71
REMARK   31  A    between atoms: _76  and  _77
REMARK   32  A    between atoms: _79  and  _81
REMARK   33  A    between atoms: _81  and  _82
REMARK   34  A    between atoms: _81  and  _84
REMARK   35  A    between atoms: _84  and  _85
REMARK   36  A    between atoms: _95  and  _97
REMARK   37  A    between atoms: _97  and  _98
REMARK   38  A    between atoms: _97  and  _100
REMARK   39  A    between atoms: _100  and  _101
REMARK   40  A    between atoms: _101  and  _102
REMARK   41  A    between atoms: _102  and  _103
REMARK   42  A    between atoms: _112  and  _114
REMARK   43  A    between atoms: _114  and  _115
REMARK   44  A    between atoms: _114  and  _117
REMARK   45  A    between atoms: _117  and  _118
REMARK   46  A    between atoms: _124  and  _126
REMARK   47  A    between atoms: _126  and  _127
REMARK   48  A    between atoms: _126  and  _129
REMARK   49  A    between atoms: _129  and  _130
REMARK   50  A    between atoms: _133  and  _135
REMARK   51  A    between atoms: _135  and  _136
REMARK   52  A    between atoms: _135  and  _138
REMARK   53  A    between atoms: _138  and  _139
REMARK   54  A    between atoms: _142  and  _144
REMARK   55  A    between atoms: _144  and  _145
REMARK   56  A    between atoms: _144  and  _147
REMARK   57  A    between atoms: _147  and  _148
REMARK   58  A    between atoms: _150  and  _152
REMARK   59  A    between atoms: _152  and  _153
REMARK   60  A    between atoms: _152  and  _155
REMARK   61  A    between atoms: _155  and  _156
REMARK   62  A    between atoms: _161  and  _162
REMARK   63  A    between atoms: _164  and  _166
REMARK   64  A    between atoms: _166  and  _167
REMARK   65  A    between atoms: _166  and  _169
REMARK   66  A    between atoms: _169  and  _170
REMARK   67  A    between atoms: _173  and  _175
REMARK   68  A    between atoms: _175  and  _176
REMARK   69  A    between atoms: _175  and  _178
REMARK   70  A    between atoms: _181  and  _183
REMARK   71  A    between atoms: _183  and  _184
REMARK   72  A    between atoms: _183  and  _186
REMARK   73  A    between atoms: _186  and  _187
REMARK   74  A    between atoms: _193  and  _195
REMARK   75  A    between atoms: _195  and  _196
REMARK   76  A    between atoms: _195  and  _198
REMARK   77  A    between atoms: _198  and  _199
REMARK   78  A    between atoms: _205  and  _207
REMARK   79  A    between atoms: _207  and  _208
REMARK   80  A    between atoms: _207  and  _210
REMARK   81  A    between atoms: _210  and  _211
REMARK   82  A    between atoms: _211  and  _212
REMARK   83  A    between atoms: _212  and  _213
REMARK   84  A    between atoms: _213  and  _214
REMARK   85  A    between atoms: _218  and  _220
REMARK   86  A    between atoms: _220  and  _221
REMARK   87  A    between atoms: _220  and  _223
REMARK   88  A    between atoms: _223  and  _224
REMARK   89  A    between atoms: _224  and  _225
REMARK   90  A    between atoms: _225  and  _226
REMARK   91  A    between atoms: _226  and  _227
REMARK   92  A    between atoms: _231  and  _233
REMARK   93  A    between atoms: _233  and  _234
REMARK   94  A    between atoms: _233  and  _236
REMARK   95  A    between atoms: _239  and  _241
REMARK   96  A    between atoms: _241  and  _242
REMARK   97  A    between atoms: _241  and  _244
REMARK   98  A    between atoms: _244  and  _245
REMARK   99  A    between atoms: _247  and  _249
REMARK  100  A    between atoms: _249  and  _250
REMARK  101  A    between atoms: _249  and  _252
REMARK  102  A    between atoms: _252  and  _253
REMARK  103  A    between atoms: _253  and  _254
REMARK  104  A    between atoms: _254  and  _255
REMARK  105  A    between atoms: _264  and  _266
REMARK  106  A    between atoms: _266  and  _267
REMARK  107  A    between atoms: _266  and  _269
REMARK  108  A    between atoms: _269  and  _270
REMARK  109  A    between atoms: _270  and  _271
REMARK  110  A    between atoms: _274  and  _276
REMARK  111  A    between atoms: _276  and  _277
REMARK  112  A    between atoms: _276  and  _279
REMARK  113  A    between atoms: _279  and  _280
REMARK  114  A    between atoms: _285  and  _286
REMARK  115  A    between atoms: _288  and  _290
REMARK  116  A    between atoms: _290  and  _291
REMARK  117  A    between atoms: _290  and  _293
REMARK  118  A    between atoms: _293  and  _294
REMARK  119  A    between atoms: _300  and  _302
REMARK  120  A    between atoms: _302  and  _303
REMARK  121  A    between atoms: _302  and  _305
REMARK  122  A    between atoms: _305  and  _306
REMARK  123  A    between atoms: _306  and  _307
REMARK  124  A    between atoms: _307  and  _308
REMARK  125  A    between atoms: _308  and  _309
REMARK  126  A    between atoms: _313  and  _315
REMARK  127  A    between atoms: _315  and  _316
REMARK  128  A    between atoms: _315  and  _318
REMARK  129  A    between atoms: _318  and  _319
REMARK  130  A    between atoms: _322  and  _324
REMARK  131  A    between atoms: _324  and  _325
REMARK  132  A    between atoms: _324  and  _327
REMARK  133  A    between atoms: _327  and  _328
REMARK                            x       y       z     vdW  Elec       q    Type
REMARK                         _______ _______ _______ _____ _____    ______ ____
ROOT
ATOM      1  CA  LEU A   1      26.984  92.191  61.071  0.00  0.00    +0.133 C 
ENDROOT
BRANCH   1   2
ATOM      2  N   LEU A   1      26.777  93.396  61.875  0.00  0.00    -0.239 NA
ATOM      3  H   LEU A   1      25.844  93.855  61.874  0.00  0.00    +0.142 HD
ENDBRANCH   1   2
BRANCH   1   4
ATOM      4  C   LEU A   1      26.611  92.406  59.605  0.00  0.00    +0.224 C 
ATOM      5  O   LEU A   1      25.623  93.053  59.301  0.00  0.00    -0.287 OA
ENDBRANCH   1   4
BRANCH   1   6
ATOM      6  CB  LEU A   1      26.163  91.039  61.630  0.00  0.00    +0.025 C 
BRANCH   6   7
ATOM      7  CG  LEU A   1      26.542  90.519  63.013  0.00  0.00    +0.002 C 
ATOM      8  CD2 LEU A   1      25.472  89.570  63.554  0.00  0.00    +0.000 C 
ATOM      9  CD1 LEU A   1      27.917  89.845  62.983  0.00  0.00    +0.000 C 
ENDBRANCH   6   7
ENDBRANCH   1   6
TORSDOF 4
REMARK  Name = ../refined-set-2016/3tf6/3tf6_pocket.pdb
REMARK  133 active torsions:
REMARK  status: ('A' for Active; 'I' for Inactive)
REMARK    1  A    between atoms: _1  and  _3
REMARK    2  A    between atoms: _3  and  _4
REMARK    3  A    between atoms: _3  and  _6
REMARK    4  A    between atoms: _6  and  _7
REMARK    5  A    between atoms: _10  and  _12
REMARK    6  A    between atoms: _12  and  _13
REMARK    7  A    between atoms: _12  and  _15
REMARK    8  A    between atoms: _15  and  _16
REMARK    9  A    between atoms: _19  and  _21
REMARK   10  A    between atoms: _21  and  _22
REMARK   11  A    between atoms: _25  and  _27
REMARK   12  A    between atoms: _27  and  _28
REMARK   13  A    between atoms: _30  and  _32
REMARK   14  A    between atoms: _32  and  _33
REMARK   15  A    between atoms: _32  and  _35
REMARK   16  A    between atoms: _35  and  _36
REMARK   17  A    between atoms: _41  and  _43
REMARK   18  A    between atoms: _43  and  _44
REMARK   19  A    between atoms: _47  and  _49
REMARK   20  A    between atoms: _49  and  _50
REMARK   21  A    between atoms: _49  and  _52
REMARK   22  A    between atoms: _52  and  _53
REMARK   23  A    between atoms: _56  and  _58
REMARK   24  A    between atoms: _58  and  _59
REMARK   25  A    between atoms: _58  and  _61
REMARK   26  A    between atoms: _61  and  _62
REMARK   27  A    between atoms: _65  and  _67
REMARK   28  A    between atoms: _67  and  _68
REMARK   29  A    between atoms: _67  and  _70
REMARK   30  A    between atoms: _70  and  _71
REMARK   31  A    between atoms: _76  and  _77
REMARK   32  A    between atoms: _79  and  _81
REMARK   33  A    between atoms: _81  and  _82
REMARK   34  A    between atoms: _81  and  _84
REMARK   35  A    between atoms: _84  and  _85
REMARK   36  A    between atoms: _95  and  _97
REMARK   37  A    between atoms: _97  and  _98
REMARK   38  A    between atoms: _97  and  _100
REMARK   39  A    between atoms: _100  and  _101
REMARK   40  A    between atoms: _101  and  _102
REMARK   41  A    between atoms: _102  and  _103
REMARK   42  A    between atoms: _112  and  _114
REMARK   43  A    between atoms: _114  and  _115
REMARK   44  A    between atoms: _114  and  _117
REMARK   45  A    between atoms: _117  and  _118
REMARK   46  A    between atoms: _124  and  _126
REMARK   47  A    between atoms: _126  and  _127
REMARK   48  A    between atoms: _126  and  _129
REMARK   49  A    between atoms: _129  and  _130
REMARK   50  A    between atoms: _133  and  _135
REMARK   51  A    between atoms: _135  and  _136
REMARK   52  A    between atoms: _135  and  _138
REMARK   53  A    between atoms: _138  and  _139
REMARK   54  A    between atoms: _142  and  _144
REMARK   55  A    between atoms: _144  and  _145
REMARK   56  A    between atoms: _144  and  _147
REMARK   57  A    between atoms: _147  and  _148
REMARK   58  A    between atoms: _150  and  _152
REMARK   59  A    between atoms: _152  and  _153
REMARK   60  A    between atoms: _152  and  _155
REMARK   61  A    between atoms: _155  and  _156
REMARK   62  A    between atoms: _161  and  _162
REMARK   63  A    between atoms: _164  and  _166
REMARK   64  A    between atoms: _166  and  _167
REMARK   65  A    between atoms: _166  and  _169
REMARK   66  A    between atoms: _169  and  _170
REMARK   67  A    between atoms: _173  and  _175
REMARK   68  A    between atoms: _175  and  _176
REMARK   69  A    between atoms: _175  and  _178
REMARK   70  A    between atoms: _181  and  _183
REMARK   71  A    between atoms: _183  and  _184
REMARK   72  A    between atoms: _183  and  _186
REMARK   73  A    between atoms: _186  and  _187
REMARK   74  A    between atoms: _193  and  _195
REMARK   75  A    between atoms: _195  and  _196
REMARK   76  A    between atoms: _195  and  _198
REMARK   77  A    between atoms: _198  and  _199
REMARK   78  A    between atoms: _205  and  _207
REMARK   79  A    between atoms: _207  and  _208
REMARK   80  A    between atoms: _207  and  _210
REMARK   81  A    between atoms: _210  and  _211
REMARK   82  A    between atoms: _211  and  _212
REMARK   83  A    between atoms: _212  and  _213
REMARK   84  A    between atoms: _213  and  _214
REMARK   85  A    between atoms: _218  and  _220
REMARK   86  A    between atoms: _220  and  _221
REMARK   87  A    between atoms: _220  and  _223
REMARK   88  A    between atoms: _223  and  _224
REMARK   89  A    between atoms: _224  and  _225
REMARK   90  A    between atoms: _225  and  _226
REMARK   91  A    between atoms: _226  and  _227
REMARK   92  A    between atoms: _231  and  _233
REMARK   93  A    between atoms: _233  and  _234
REMARK   94  A    between atoms: _233  and  _236
REMARK   95  A    between atoms: _239  and  _241
REMARK   96  A    between atoms: _241  and  _242
REMARK   97  A    between atoms: _241  and  _244
REMARK   98  A    between atoms: _244  and  _245
REMARK   99  A    between atoms: _247  and  _249
REMARK  100  A    between atoms: _249  and  _250
REMARK  101  A    between atoms: _249  and  _252
REMARK  102  A    between atoms: _252  and  _253
REMARK  103  A    between atoms: _253  and  _254
REMARK  104  A    between atoms: _254  and  _255
REMARK  105  A    between atoms: _264  and  _266
REMARK  106  A    between atoms: _266  and  _267
REMARK  107  A    between atoms: _266  and  _269
REMARK  108  A    between atoms: _269  and  _270
REMARK  109  A    between atoms: _270  and  _271
REMARK  110  A    between atoms: _274  and  _276
REMARK  111  A    between atoms: _276  and  _277
REMARK  112  A    between atoms: _276  and  _279
REMARK  113  A    between atoms: _279  and  _280
REMARK  114  A    between atoms: _285  and  _286
REMARK  115  A    between atoms: _288  and  _290
REMARK  116  A    between atoms: _290  and  _291
REMARK  117  A    between atoms: _290  and  _293
REMARK  118  A    between atoms: _293  and  _294
REMARK  119  A    between atoms: _300  and  _302
REMARK  120  A    between atoms: _302  and  _303
REMARK  121  A    between atoms: _302  and  _305
REMARK  122  A    between atoms: _305  and  _306
REMARK  123  A    between atoms: _306  and  _307
REMARK  124  A    between atoms: _307  and  _308
REMARK  125  A    between atoms: _308  and  _309
REMARK  126  A    between atoms: _313  and  _315
REMARK  127  A    between atoms: _315  and  _316
REMARK  128  A    between atoms: _315  and  _318
REMARK  129  A    between atoms: _318  and  _319
REMARK  130  A    between atoms: _322  and  _324
REMARK  131  A    between atoms: _324  and  _325
REMARK  132  A    between atoms: _324  and  _327
REMARK  133  A    between atoms: _327  and  _328
REMARK                            x       y       z     vdW  Elec       q    Type
REMARK                         _______ _______ _______ _____ _____    ______ ____
ROOT
ATOM      1  CA  ASN A   4      29.681  87.361  58.898  0.00  0.00    +0.158 C 
ENDROOT
BRANCH   1   3
ATOM      2  C   GLY A   3      30.924  85.511  57.947  0.00  0.00    +0.243 C 
ATOM      3  N   ASN A   4      29.767  85.985  58.383  0.00  0.00    -0.297 N 
ATOM      4  H   ASN A   4      28.918  85.384  58.361  0.00  0.00    +0.150 HD
ATOM      5  O   GLY A   3      31.995  86.121  58.053  0.00  0.00    -0.273 OA
BRANCH   2   6
ATOM      6  CA  GLY A   3      30.880  84.160  57.303  0.00  0.00    +0.176 C 
BRANCH   6   8
ATOM      7  C   ALA A   2      32.331  82.567  56.268  0.00  0.00    +0.241 C 
ATOM      8  N   GLY A   3      32.158  83.789  56.708  0.00  0.00    -0.295 N 
ATOM      9  H   GLY A   3      32.925  84.487  56.633  0.00  0.00    +0.150 HD
ATOM     10  O   ALA A   2      31.468  81.710  56.394  0.00  0.00    -0.273 OA
BRANCH   7  11
ATOM     11  CA  ALA A   2      33.647  82.248  55.586  0.00  0.00    +0.149 C 
ATOM     12  CB  ALA A   2      33.540  82.508  54.088  0.00  0.00    +0.031 C 
BRANCH  11  15
ATOM     13  C   LEU A   1      35.250  80.472  56.045  0.00  0.00    +0.238 C 
ATOM     14  O   LEU A   1      36.207  81.256  56.017  0.00  0.00    -0.274 OA
ATOM     15  N   ALA A   2      33.987  80.856  55.831  0.00  0.00    -0.297 N 
ATOM     16  H   ALA A   2      33.231  80.142  55.840  0.00  0.00    +0.150 HD
BRANCH  13  17
ATOM     17  CA  LEU A   1      35.484  78.983  56.253  0.00  0.00    +0.145 C 
BRANCH  17  18
ATOM     18  N   LEU A   1      36.499  78.541  55.334  0.00  0.00    -0.238 NA
ATOM     19  H   LEU A   1      37.253  79.200  55.053  0.00  0.00    +0.142 HD
ENDBRANCH  17  18
BRANCH  17  20
ATOM     20  CB  LEU A   1      35.967  78.693  57.669  0.00  0.00    +0.026 C 
BRANCH  20  21
ATOM     21  CG  LEU A   1      35.050  78.970  58.838  0.00  0.00    +0.002 C 
ATOM     22  CD2 LEU A   1      35.853  78.855  60.125  0.00  0.00    +0.000 C 
ATOM     23  CD1 LEU A   1      33.866  77.996  58.824  0.00  0.00    +0.000 C 
ENDBRANCH  20  21
ENDBRANCH  17  20
ENDBRANCH  13  17
ENDBRANCH  11  15
ENDBRANCH   7  11
ENDBRANCH   6   8
ENDBRANCH   2   6
ENDBRANCH   1   3
BRANCH   1  24
ATOM     24  C   ASN A   4      30.270  87.532  60.284  0.00  0.00    +0.241 C 
ATOM     25  N   ALA A   5      30.520  86.421  60.981  0.00  0.00    -0.297 N 
ATOM     26  H   ALA A   5      30.208  85.508  60.594  0.00  0.00    +0.150 HD
ATOM     27  O   ASN A   4      30.528  88.654  60.688  0.00  0.00    -0.273 OA
BRANCH  25  28
ATOM     28  CA  ALA A   5      31.222  86.438  62.281  0.00  0.00    +0.149 C 
ATOM     29  CB  ALA A   5      30.385  85.740  63.358  0.00  0.00    +0.031 C 
BRANCH  28  30
ATOM     30  C   ALA A   5      32.609  85.763  62.194  0.00  0.00    +0.241 C 
ATOM     31  O   ALA A   5      33.255  85.552  63.211  0.00  0.00    -0.273 OA
ATOM     32  N   ILE A   6      33.029  85.389  60.988  0.00  0.00    -0.297 N 
ATOM     33  H   ILE A   6      32.394  85.506  60.172  0.00  0.00    +0.150 HD
BRANCH  32  34
ATOM     34  CA  ILE A   6      34.344  84.825  60.781  0.00  0.00    +0.149 C 
BRANCH  34  35
ATOM     35  C   ILE A   6      35.294  85.970  60.406  0.00  0.00    +0.241 C 
ATOM     36  N   LEU A   7      36.431  86.046  61.085  0.00  0.00    -0.298 N 
ATOM     37  H   LEU A   7      36.629  85.335  61.818  0.00  0.00    +0.150 HD
ATOM     38  O   ILE A   6      34.994  86.771  59.520  0.00  0.00    -0.273 OA
BRANCH  36  39
ATOM     39  CA  LEU A   7      37.427  87.111  60.831  0.00  0.00    +0.137 C 
BRANCH  39  40
ATOM     40  C   LEU A   7      38.817  86.501  60.666  0.00  0.00    +0.227 C 
ATOM     41  O   LEU A   7      39.217  85.689  61.467  0.00  0.00    -0.286 OA
ENDBRANCH  39  40
BRANCH  39  42
ATOM     42  CB  LEU A   7      37.451  88.121  61.995  0.00  0.00    +0.028 C 
BRANCH  42  43
ATOM     43  CG  LEU A   7      36.557  89.370  61.950  0.00  0.00    +0.002 C 
ATOM     44  CD2 LEU A   7      35.087  88.990  62.041  0.00  0.00    +0.000 C 
ATOM     45  CD1 LEU A   7      36.832  90.223  60.708  0.00  0.00    +0.000 C 
ENDBRANCH  42  43
ENDBRANCH  39  42
ENDBRANCH  36  39
ENDBRANCH  34  35
BRANCH  34  46
ATOM     46  CB  ILE A   6      34.326  83.771  59.651  0.00  0.00    +0.027 C 
ATOM     47  CG2 ILE A   6      35.727  83.262  59.374  0.00  0.00    +0.002 C 
BRANCH  46  48
ATOM     48  CG1 ILE A   6      33.345  82.623  59.987  0.00  0.00    +0.002 C 
ATOM     49  CD1 ILE A   6      33.716  81.833  61.214  0.00  0.00    +0.000 C 
ENDBRANCH  46  48
ENDBRANCH  34  46
ENDBRANCH  32  34
ENDBRANCH  28  30
ENDBRANCH  25  28
ENDBRANCH   1  24
BRANCH   1  50
ATOM     50  CB  ASN A   4      28.275  87.955  58.777  0.00  0.00    +0.114 C 
BRANCH  50  51
ATOM     51  CG  ASN A   4      27.217  87.206  59.573  0.00  0.00    +0.222 C 
ATOM     52  OD1 ASN A   4      27.463  86.117  60.124  0.00  0.00    -0.275 OA
ATOM     53  ND2 ASN A   4      25.999  87.788  59.618  0.00  0.00    -0.329 N 
ATOM     54 HD21 ASN A   4      25.220  87.325  60.128  0.00  0.00    +0.145 HD
ATOM     55 HD22 ASN A   4      25.840  88.699  59.142  0.00  0.00    +0.145 HD
ENDBRANCH  50  51
ENDBRANCH   1  50
TORSDOF 22
REMARK  Name = ../refined-set-2016/3tf6/3tf6_pocket.pdb
REMARK  133 active torsions:
REMARK  status: ('A' for Active; 'I' for Inactive)
REMARK    1  A    between atoms: _1  and  _3
REMARK    2  A    between atoms: _3  and  _4
REMARK    3  A    between atoms: _3  and  _6
REMARK    4  A    between atoms: _6  and  _7
REMARK    5  A    between atoms: _10  and  _12
REMARK    6  A    between atoms: _12  and  _13
REMARK    7  A    between atoms: _12  and  _15
REMARK    8  A    between atoms: _15  and  _16
REMARK    9  A    between atoms: _19  and  _21
REMARK   10  A    between atoms: _21  and  _22
REMARK   11  A    between atoms: _25  and  _27
REMARK   12  A    between atoms: _27  and  _28
REMARK   13  A    between atoms: _30  and  _32
REMARK   14  A    between atoms: _32  and  _33
REMARK   15  A    between atoms: _32  and  _35
REMARK   16  A    between atoms: _35  and  _36
REMARK   17  A    between atoms: _41  and  _43
REMARK   18  A    between atoms: _43  and  _44
REMARK   19  A    between atoms: _47  and  _49
REMARK   20  A    between atoms: _49  and  _50
REMARK   21  A    between atoms: _49  and  _52
REMARK   22  A    between atoms: _52  and  _53
REMARK   23  A    between atoms: _56  and  _58
REMARK   24  A    between atoms: _58  and  _59
REMARK   25  A    between atoms: _58  and  _61
REMARK   26  A    between atoms: _61  and  _62
REMARK   27  A    between atoms: _65  and  _67
REMARK   28  A    between atoms: _67  and  _68
REMARK   29  A    between atoms: _67  and  _70
REMARK   30  A    between atoms: _70  and  _71
REMARK   31  A    between atoms: _76  and  _77
REMARK   32  A    between atoms: _79  and  _81
REMARK   33  A    between atoms: _81  and  _82
REMARK   34  A    between atoms: _81  and  _84
REMARK   35  A    between atoms: _84  and  _85
REMARK   36  A    between atoms: _95  and  _97
REMARK   37  A    between atoms: _97  and  _98
REMARK   38  A    between atoms: _97  and  _100
REMARK   39  A    between atoms: _100  and  _101
REMARK   40  A    between atoms: _101  and  _102
REMARK   41  A    between atoms: _102  and  _103
REMARK   42  A    between atoms: _112  and  _114
REMARK   43  A    between atoms: _114  and  _115
REMARK   44  A    between atoms: _114  and  _117
REMARK   45  A    between atoms: _117  and  _118
REMARK   46  A    between atoms: _124  and  _126
REMARK   47  A    between atoms: _126  and  _127
REMARK   48  A    between atoms: _126  and  _129
REMARK   49  A    between atoms: _129  and  _130
REMARK   50  A    between atoms: _133  and  _135
REMARK   51  A    between atoms: _135  and  _136
REMARK   52  A    between atoms: _135  and  _138
REMARK   53  A    between atoms: _138  and  _139
REMARK   54  A    between atoms: _142  and  _144
REMARK   55  A    between atoms: _144  and  _145
REMARK   56  A    between atoms: _144  and  _147
REMARK   57  A    between atoms: _147  and  _148
REMARK   58  A    between atoms: _150  and  _152
REMARK   59  A    between atoms: _152  and  _153
REMARK   60  A    between atoms: _152  and  _155
REMARK   61  A    between atoms: _155  and  _156
REMARK   62  A    between atoms: _161  and  _162
REMARK   63  A    between atoms: _164  and  _166
REMARK   64  A    between atoms: _166  and  _167
REMARK   65  A    between atoms: _166  and  _169
REMARK   66  A    between atoms: _169  and  _170
REMARK   67  A    between atoms: _173  and  _175
REMARK   68  A    between atoms: _175  and  _176
REMARK   69  A    between atoms: _175  and  _178
REMARK   70  A    between atoms: _181  and  _183
REMARK   71  A    between atoms: _183  and  _184
REMARK   72  A    between atoms: _183  and  _186
REMARK   73  A    between atoms: _186  and  _187
REMARK   74  A    between atoms: _193  and  _195
REMARK   75  A    between atoms: _195  and  _196
REMARK   76  A    between atoms: _195  and  _198
REMARK   77  A    between atoms: _198  and  _199
REMARK   78  A    between atoms: _205  and  _207
REMARK   79  A    between atoms: _207  and  _208
REMARK   80  A    between atoms: _207  and  _210
REMARK   81  A    between atoms: _210  and  _211
REMARK   82  A    between atoms: _211  and  _212
REMARK   83  A    between atoms: _212  and  _213
REMARK   84  A    between atoms: _213  and  _214
REMARK   85  A    between atoms: _218  and  _220
REMARK   86  A    between atoms: _220  and  _221
REMARK   87  A    between atoms: _220  and  _223
REMARK   88  A    between atoms: _223  and  _224
REMARK   89  A    between atoms: _224  and  _225
REMARK   90  A    between atoms: _225  and  _226
REMARK   91  A    between atoms: _226  and  _227
REMARK   92  A    between atoms: _231  and  _233
REMARK   93  A    between atoms: _233  and  _234
REMARK   94  A    between atoms: _233  and  _236
REMARK   95  A    between atoms: _239  and  _241
REMARK   96  A    between atoms: _241  and  _242
REMARK   97  A    between atoms: _241  and  _244
REMARK   98  A    between atoms: _244  and  _245
REMARK   99  A    between atoms: _247  and  _249
REMARK  100  A    between atoms: _249  and  _250
REMARK  101  A    between atoms: _249  and  _252
REMARK  102  A    between atoms: _252  and  _253
REMARK  103  A    between atoms: _253  and  _254
REMARK  104  A    between atoms: _254  and  _255
REMARK  105  A    between atoms: _264  and  _266
REMARK  106  A    between atoms: _266  and  _267
REMARK  107  A    between atoms: _266  and  _269
REMARK  108  A    between atoms: _269  and  _270
REMARK  109  A    between atoms: _270  and  _271
REMARK  110  A    between atoms: _274  and  _276
REMARK  111  A    between atoms: _276  and  _277
REMARK  112  A    between atoms: _276  and  _279
REMARK  113  A    between atoms: _279  and  _280
REMARK  114  A    between atoms: _285  and  _286
REMARK  115  A    between atoms: _288  and  _290
REMARK  116  A    between atoms: _290  and  _291
REMARK  117  A    between atoms: _290  and  _293
REMARK  118  A    between atoms: _293  and  _294
REMARK  119  A    between atoms: _300  and  _302
REMARK  120  A    between atoms: _302  and  _303
REMARK  121  A    between atoms: _302  and  _305
REMARK  122  A    between atoms: _305  and  _306
REMARK  123  A    between atoms: _306  and  _307
REMARK  124  A    between atoms: _307  and  _308
REMARK  125  A    between atoms: _308  and  _309
REMARK  126  A    between atoms: _313  and  _315
REMARK  127  A    between atoms: _315  and  _316
REMARK  128  A    between atoms: _315  and  _318
REMARK  129  A    between atoms: _318  and  _319
REMARK  130  A    between atoms: _322  and  _324
REMARK  131  A    between atoms: _324  and  _325
REMARK  132  A    between atoms: _324  and  _327
REMARK  133  A    between atoms: _327  and  _328
REMARK                            x       y       z     vdW  Elec       q    Type
REMARK                         _______ _______ _______ _____ _____    ______ ____
ROOT
ATOM      1  CG  TYR A   1      37.039  72.623  62.611  0.00  0.00    -0.020 A 
ATOM      2  CD2 TYR A   1      35.746  72.113  62.490  0.00  0.00    -0.001 A 
ATOM      3  CE2 TYR A   1      34.707  72.900  62.027  0.00  0.00    +0.036 A 
ATOM      4  CZ  TYR A   1      34.951  74.203  61.665  0.00  0.00    +0.134 A 
ATOM      5  CE1 TYR A   1      36.225  74.743  61.791  0.00  0.00    +0.036 A 
ATOM      6  CD1 TYR A   1      37.253  73.953  62.265  0.00  0.00    -0.001 A 
ENDROOT
BRANCH   4   7
ATOM      7  OH  TYR A   1      33.938  74.968  61.168  0.00  0.00    -0.506 OA
ATOM      8  HH  TYR A   1      33.216  75.035  61.842  0.00  0.00    +0.292 HD
ENDBRANCH   4   7
BRANCH   1   9
ATOM      9  CB  TYR A   1      38.152  71.780  63.198  0.00  0.00    +0.051 C 
BRANCH   9  10
ATOM     10  CA  TYR A   1      39.041  71.071  62.183  0.00  0.00    +0.137 C 
BRANCH  10  11
ATOM     11  N   TYR A   1      39.769  72.028  61.405  0.00  0.00    -0.239 NA
ATOM     12  H   TYR A   1      39.268  72.550  60.658  0.00  0.00    +0.142 HD
ENDBRANCH  10  11
BRANCH  10  13
ATOM     13  C   TYR A   1      38.249  70.191  61.234  0.00  0.00    +0.224 C 
ATOM     14  O   TYR A   1      38.291  70.394  60.020  0.00  0.00    -0.287 OA
ENDBRANCH  10  13
ENDBRANCH   9  10
ENDBRANCH   1   9
TORSDOF 5
REMARK  Name = ../refined-set-2016/3tf6/3tf6_pocket.pdb
REMARK  133 active torsions:
REMARK  status: ('A' for Active; 'I' for Inactive)
REMARK    1  A    between atoms: _1  and  _3
REMARK    2  A    between atoms: _3  and  _4
REMARK    3  A    between atoms: _3  and  _6
REMARK    4  A    between atoms: _6  and  _7
REMARK    5  A    between atoms: _10  and  _12
REMARK    6  A    between atoms: _12  and  _13
REMARK    7  A    between atoms: _12  and  _15
REMARK    8  A    between atoms: _15  and  _16
REMARK    9  A    between atoms: _19  and  _21
REMARK   10  A    between atoms: _21  and  _22
REMARK   11  A    between atoms: _25  and  _27
REMARK   12  A    between atoms: _27  and  _28
REMARK   13  A    between atoms: _30  and  _32
REMARK   14  A    between atoms: _32  and  _33
REMARK   15  A    between atoms: _32  and  _35
REMARK   16  A    between atoms: _35  and  _36
REMARK   17  A    between atoms: _41  and  _43
REMARK   18  A    between atoms: _43  and  _44
REMARK   19  A    between atoms: _47  and  _49
REMARK   20  A    between atoms: _49  and  _50
REMARK   21  A    between atoms: _49  and  _52
REMARK   22  A    between atoms: _52  and  _53
REMARK   23  A    between atoms: _56  and  _58
REMARK   24  A    between atoms: _58  and  _59
REMARK   25  A    between atoms: _58  and  _61
REMARK   26  A    between atoms: _61  and  _62
REMARK   27  A    between atoms: _65  and  _67
REMARK   28  A    between atoms: _67  and  _68
REMARK   29  A    between atoms: _67  and  _70
REMARK   30  A    between atoms: _70  and  _71
REMARK   31  A    between atoms: _76  and  _77
REMARK   32  A    between atoms: _79  and  _81
REMARK   33  A    between atoms: _81  and  _82
REMARK   34  A    between atoms: _81  and  _84
REMARK   35  A    between atoms: _84  and  _85
REMARK   36  A    between atoms: _95  and  _97
REMARK   37  A    between atoms: _97  and  _98
REMARK   38  A    between atoms: _97  and  _100
REMARK   39  A    between atoms: _100  and  _101
REMARK   40  A    between atoms: _101  and  _102
REMARK   41  A    between atoms: _102  and  _103
REMARK   42  A    between atoms: _112  and  _114
REMARK   43  A    between atoms: _114  and  _115
REMARK   44  A    between atoms: _114  and  _117
REMARK   45  A    between atoms: _117  and  _118
REMARK   46  A    between atoms: _124  and  _126
REMARK   47  A    between atoms: _126  and  _127
REMARK   48  A    between atoms: _126  and  _129
REMARK   49  A    between atoms: _129  and  _130
REMARK   50  A    between atoms: _133  and  _135
REMARK   51  A    between atoms: _135  and  _136
REMARK   52  A    between atoms: _135  and  _138
REMARK   53  A    between atoms: _138  and  _139
REMARK   54  A    between atoms: _142  and  _144
REMARK   55  A    between atoms: _144  and  _145
REMARK   56  A    between atoms: _144  and  _147
REMARK   57  A    between atoms: _147  and  _148
REMARK   58  A    between atoms: _150  and  _152
REMARK   59  A    between atoms: _152  and  _153
REMARK   60  A    between atoms: _152  and  _155
REMARK   61  A    between atoms: _155  and  _156
REMARK   62  A    between atoms: _161  and  _162
REMARK   63  A    between atoms: _164  and  _166
REMARK   64  A    between atoms: _166  and  _167
REMARK   65  A    between atoms: _166  and  _169
REMARK   66  A    between atoms: _169  and  _170
REMARK   67  A    between atoms: _173  and  _175
REMARK   68  A    between atoms: _175  and  _176
REMARK   69  A    between atoms: _175  and  _178
REMARK   70  A    between atoms: _181  and  _183
REMARK   71  A    between atoms: _183  and  _184
REMARK   72  A    between atoms: _183  and  _186
REMARK   73  A    between atoms: _186  and  _187
REMARK   74  A    between atoms: _193  and  _195
REMARK   75  A    between atoms: _195  and  _196
REMARK   76  A    between atoms: _195  and  _198
REMARK   77  A    between atoms: _198  and  _199
REMARK   78  A    between atoms: _205  and  _207
REMARK   79  A    between atoms: _207  and  _208
REMARK   80  A    between atoms: _207  and  _210
REMARK   81  A    between atoms: _210  and  _211
REMARK   82  A    between atoms: _211  and  _212
REMARK   83  A    between atoms: _212  and  _213
REMARK   84  A    between atoms: _213  and  _214
REMARK   85  A    between atoms: _218  and  _220
REMARK   86  A    between atoms: _220  and  _221
REMARK   87  A    between atoms: _220  and  _223
REMARK   88  A    between atoms: _223  and  _224
REMARK   89  A    between atoms: _224  and  _225
REMARK   90  A    between atoms: _225  and  _226
REMARK   91  A    between atoms: _226  and  _227
REMARK   92  A    between atoms: _231  and  _233
REMARK   93  A    between atoms: _233  and  _234
REMARK   94  A    between atoms: _233  and  _236
REMARK   95  A    between atoms: _239  and  _241
REMARK   96  A    between atoms: _241  and  _242
REMARK   97  A    between atoms: _241  and  _244
REMARK   98  A    between atoms: _244  and  _245
REMARK   99  A    between atoms: _247  and  _249
REMARK  100  A    between atoms: _249  and  _250
REMARK  101  A    between atoms: _249  and  _252
REMARK  102  A    between atoms: _252  and  _253
REMARK  103  A    between atoms: _253  and  _254
REMARK  104  A    between atoms: _254  and  _255
REMARK  105  A    between atoms: _264  and  _266
REMARK  106  A    between atoms: _266  and  _267
REMARK  107  A    between atoms: _266  and  _269
REMARK  108  A    between atoms: _269  and  _270
REMARK  109  A    between atoms: _270  and  _271
REMARK  110  A    between atoms: _274  and  _276
REMARK  111  A    between atoms: _276  and  _277
REMARK  112  A    between atoms: _276  and  _279
REMARK  113  A    between atoms: _279  and  _280
REMARK  114  A    between atoms: _285  and  _286
REMARK  115  A    between atoms: _288  and  _290
REMARK  116  A    between atoms: _290  and  _291
REMARK  117  A    between atoms: _290  and  _293
REMARK  118  A    between atoms: _293  and  _294
REMARK  119  A    between atoms: _300  and  _302
REMARK  120  A    between atoms: _302  and  _303
REMARK  121  A    between atoms: _302  and  _305
REMARK  122  A    between atoms: _305  and  _306
REMARK  123  A    between atoms: _306  and  _307
REMARK  124  A    between atoms: _307  and  _308
REMARK  125  A    between atoms: _308  and  _309
REMARK  126  A    between atoms: _313  and  _315
REMARK  127  A    between atoms: _315  and  _316
REMARK  128  A    between atoms: _315  and  _318
REMARK  129  A    between atoms: _318  and  _319
REMARK  130  A    between atoms: _322  and  _324
REMARK  131  A    between atoms: _324  and  _325
REMARK  132  A    between atoms: _324  and  _327
REMARK  133  A    between atoms: _327  and  _328
REMARK                            x       y       z     vdW  Elec       q    Type
REMARK                         _______ _______ _______ _____ _____    ______ ____
ROOT
ATOM      1  CG  TRP A   1      30.125  71.588  68.511  0.00  0.00    -0.002 A 
ATOM      2  CD2 TRP A   1      29.213  72.276  69.445  0.00  0.00    +0.013 A 
ATOM      3  CE3 TRP A   1      29.089  72.331  70.842  0.00  0.00    +0.001 A 
ATOM      4  CZ3 TRP A   1      28.056  73.097  71.393  0.00  0.00    +0.000 A 
ATOM      5  CH2 TRP A   1      27.155  73.814  70.572  0.00  0.00    +0.001 A 
ATOM      6  CZ2 TRP A   1      27.240  73.779  69.165  0.00  0.00    +0.017 A 
ATOM      7  CE2 TRP A   1      28.257  73.019  68.613  0.00  0.00    +0.056 A 
ATOM      8  NE1 TRP A   1      28.601  72.806  67.317  0.00  0.00    -0.352 N 
ATOM      9  HE1 TRP A   1      28.106  73.210  66.497  0.00  0.00    +0.166 HD
ATOM     10  CD1 TRP A   1      29.707  71.973  67.243  0.00  0.00    +0.068 A 
ENDROOT
BRANCH   1  11
ATOM     11  CB  TRP A   1      31.291  70.703  68.858  0.00  0.00    +0.053 C 
BRANCH  11  12
ATOM     12  CA  TRP A   1      30.951  69.316  69.411  0.00  0.00    +0.137 C 
BRANCH  12  13
ATOM     13  N   TRP A   1      32.165  68.528  69.429  0.00  0.00    -0.239 NA
ATOM     14  H   TRP A   1      32.560  68.215  68.519  0.00  0.00    +0.142 HD
ENDBRANCH  12  13
BRANCH  12  15
ATOM     15  C   TRP A   1      29.945  68.522  68.571  0.00  0.00    +0.224 C 
ATOM     16  O   TRP A   1      30.163  68.245  67.402  0.00  0.00    -0.287 OA
ENDBRANCH  12  15
ENDBRANCH  11  12
ENDBRANCH   1  11
TORSDOF 4
REMARK  Name = ../refined-set-2016/3tf6/3tf6_pocket.pdb
REMARK  133 active torsions:
REMARK  status: ('A' for Active; 'I' for Inactive)
REMARK    1  A    between atoms: _1  and  _3
REMARK    2  A    between atoms: _3  and  _4
REMARK    3  A    between atoms: _3  and  _6
REMARK    4  A    between atoms: _6  and  _7
REMARK    5  A    between atoms: _10  and  _12
REMARK    6  A    between atoms: _12  and  _13
REMARK    7  A    between atoms: _12  and  _15
REMARK    8  A    between atoms: _15  and  _16
REMARK    9  A    between atoms: _19  and  _21
REMARK   10  A    between atoms: _21  and  _22
REMARK   11  A    between atoms: _25  and  _27
REMARK   12  A    between atoms: _27  and  _28
REMARK   13  A    between atoms: _30  and  _32
REMARK   14  A    between atoms: _32  and  _33
REMARK   15  A    between atoms: _32  and  _35
REMARK   16  A    between atoms: _35  and  _36
REMARK   17  A    between atoms: _41  and  _43
REMARK   18  A    between atoms: _43  and  _44
REMARK   19  A    between atoms: _47  and  _49
REMARK   20  A    between atoms: _49  and  _50
REMARK   21  A    between atoms: _49  and  _52
REMARK   22  A    between atoms: _52  and  _53
REMARK   23  A    between atoms: _56  and  _58
REMARK   24  A    between atoms: _58  and  _59
REMARK   25  A    between atoms: _58  and  _61
REMARK   26  A    between atoms: _61  and  _62
REMARK   27  A    between atoms: _65  and  _67
REMARK   28  A    between atoms: _67  and  _68
REMARK   29  A    between atoms: _67  and  _70
REMARK   30  A    between atoms: _70  and  _71
REMARK   31  A    between atoms: _76  and  _77
REMARK   32  A    between atoms: _79  and  _81
REMARK   33  A    between atoms: _81  and  _82
REMARK   34  A    between atoms: _81  and  _84
REMARK   35  A    between atoms: _84  and  _85
REMARK   36  A    between atoms: _95  and  _97
REMARK   37  A    between atoms: _97  and  _98
REMARK   38  A    between atoms: _97  and  _100
REMARK   39  A    between atoms: _100  and  _101
REMARK   40  A    between atoms: _101  and  _102
REMARK   41  A    between atoms: _102  and  _103
REMARK   42  A    between atoms: _112  and  _114
REMARK   43  A    between atoms: _114  and  _115
REMARK   44  A    between atoms: _114  and  _117
REMARK   45  A    between atoms: _117  and  _118
REMARK   46  A    between atoms: _124  and  _126
REMARK   47  A    between atoms: _126  and  _127
REMARK   48  A    between atoms: _126  and  _129
REMARK   49  A    between atoms: _129  and  _130
REMARK   50  A    between atoms: _133  and  _135
REMARK   51  A    between atoms: _135  and  _136
REMARK   52  A    between atoms: _135  and  _138
REMARK   53  A    between atoms: _138  and  _139
REMARK   54  A    between atoms: _142  and  _144
REMARK   55  A    between atoms: _144  and  _145
REMARK   56  A    between atoms: _144  and  _147
REMARK   57  A    between atoms: _147  and  _148
REMARK   58  A    between atoms: _150  and  _152
REMARK   59  A    between atoms: _152  and  _153
REMARK   60  A    between atoms: _152  and  _155
REMARK   61  A    between atoms: _155  and  _156
REMARK   62  A    between atoms: _161  and  _162
REMARK   63  A    between atoms: _164  and  _166
REMARK   64  A    between atoms: _166  and  _167
REMARK   65  A    between atoms: _166  and  _169
REMARK   66  A    between atoms: _169  and  _170
REMARK   67  A    between atoms: _173  and  _175
REMARK   68  A    between atoms: _175  and  _176
REMARK   69  A    between atoms: _175  and  _178
REMARK   70  A    between atoms: _181  and  _183
REMARK   71  A    between atoms: _183  and  _184
REMARK   72  A    between atoms: _183  and  _186
REMARK   73  A    between atoms: _186  and  _187
REMARK   74  A    between atoms: _193  and  _195
REMARK   75  A    between atoms: _195  and  _196
REMARK   76  A    between atoms: _195  and  _198
REMARK   77  A    between atoms: _198  and  _199
REMARK   78  A    between atoms: _205  and  _207
REMARK   79  A    between atoms: _207  and  _208
REMARK   80  A    between atoms: _207  and  _210
REMARK   81  A    between atoms: _210  and  _211
REMARK   82  A    between atoms: _211  and  _212
REMARK   83  A    between atoms: _212  and  _213
REMARK   84  A    between atoms: _213  and  _214
REMARK   85  A    between atoms: _218  and  _220
REMARK   86  A    between atoms: _220  and  _221
REMARK   87  A    between atoms: _220  and  _223
REMARK   88  A    between atoms: _223  and  _224
REMARK   89  A    between atoms: _224  and  _225
REMARK   90  A    between atoms: _225  and  _226
REMARK   91  A    between atoms: _226  and  _227
REMARK   92  A    between atoms: _231  and  _233
REMARK   93  A    between atoms: _233  and  _234
REMARK   94  A    between atoms: _233  and  _236
REMARK   95  A    between atoms: _239  and  _241
REMARK   96  A    between atoms: _241  and  _242
REMARK   97  A    between atoms: _241  and  _244
REMARK   98  A    between atoms: _244  and  _245
REMARK   99  A    between atoms: _247  and  _249
REMARK  100  A    between atoms: _249  and  _250
REMARK  101  A    between atoms: _249  and  _252
REMARK  102  A    between atoms: _252  and  _253
REMARK  103  A    between atoms: _253  and  _254
REMARK  104  A    between atoms: _254  and  _255
REMARK  105  A    between atoms: _264  and  _266
REMARK  106  A    between atoms: _266  and  _267
REMARK  107  A    between atoms: _266  and  _269
REMARK  108  A    between atoms: _269  and  _270
REMARK  109  A    between atoms: _270  and  _271
REMARK  110  A    between atoms: _274  and  _276
REMARK  111  A    between atoms: _276  and  _277
REMARK  112  A    between atoms: _276  and  _279
REMARK  113  A    between atoms: _279  and  _280
REMARK  114  A    between atoms: _285  and  _286
REMARK  115  A    between atoms: _288  and  _290
REMARK  116  A    between atoms: _290  and  _291
REMARK  117  A    between atoms: _290  and  _293
REMARK  118  A    between atoms: _293  and  _294
REMARK  119  A    between atoms: _300  and  _302
REMARK  120  A    between atoms: _302  and  _303
REMARK  121  A    between atoms: _302  and  _305
REMARK  122  A    between atoms: _305  and  _306
REMARK  123  A    between atoms: _306  and  _307
REMARK  124  A    between atoms: _307  and  _308
REMARK  125  A    between atoms: _308  and  _309
REMARK  126  A    between atoms: _313  and  _315
REMARK  127  A    between atoms: _315  and  _316
REMARK  128  A    between atoms: _315  and  _318
REMARK  129  A    between atoms: _318  and  _319
REMARK  130  A    between atoms: _322  and  _324
REMARK  131  A    between atoms: _324  and  _325
REMARK  132  A    between atoms: _324  and  _327
REMARK  133  A    between atoms: _327  and  _328
REMARK                            x       y       z     vdW  Elec       q    Type
REMARK                         _______ _______ _______ _____ _____    ______ ____
ROOT
ATOM      1  NE  ARG A   1      27.387  71.215  64.551  0.00  0.00    -0.265 N 
ATOM      2  CZ  ARG A   1      28.562  70.753  64.130  0.00  0.00    +0.342 C 
ATOM      3  NH2 ARG A   1      29.173  69.707  64.734  0.00  0.00    -0.292 N 
ATOM      4 HH21 ARG A   1      28.724  69.243  65.549  0.00  0.00    +0.255 HD
ATOM      5 HH22 ARG A   1      30.091  69.368  64.383  0.00  0.00    +0.255 HD
ATOM      6  NH1 ARG A   1      29.131  71.340  63.083  0.00  0.00    -0.292 N 
ATOM      7 HH11 ARG A   1      30.049  71.000  62.732  0.00  0.00    +0.255 HD
ATOM      8 HH12 ARG A   1      28.658  72.139  62.614  0.00  0.00    +0.255 HD
ATOM      9  HE  ARG A   1      26.971  72.016  64.034  0.00  0.00    +0.259 HD
ENDROOT
BRANCH   1  10
ATOM     10  CD  ARG A   1      26.640  70.681  65.683  0.00  0.00    +0.174 C 
BRANCH  10  11
ATOM     11  CG  ARG A   1      25.450  69.847  65.270  0.00  0.00    +0.045 C 
BRANCH  11  12
ATOM     12  CB  ARG A   1      24.610  69.554  66.473  0.00  0.00    +0.029 C 
BRANCH  12  13
ATOM     13  CA  ARG A   1      24.672  68.122  66.936  0.00  0.00    +0.133 C 
BRANCH  13  14
ATOM     14  N   ARG A   1      26.041  67.716  67.144  0.00  0.00    -0.239 NA
ATOM     15  H   ARG A   1      26.579  67.288  66.364  0.00  0.00    +0.142 HD
ENDBRANCH  13  14
BRANCH  13  16
ATOM     16  C   ARG A   1      23.950  67.249  65.955  0.00  0.00    +0.224 C 
ATOM     17  O   ARG A   1      24.536  66.359  65.344  0.00  0.00    -0.287 OA
ENDBRANCH  13  16
ENDBRANCH  12  13
ENDBRANCH  11  12
ENDBRANCH  10  11
ENDBRANCH   1  10
TORSDOF 6
REMARK  Name = ../refined-set-2016/3tf6/3tf6_pocket.pdb
REMARK  133 active torsions:
REMARK  status: ('A' for Active; 'I' for Inactive)
REMARK    1  A    between atoms: _1  and  _3
REMARK    2  A    between atoms: _3  and  _4
REMARK    3  A    between atoms: _3  and  _6
REMARK    4  A    between atoms: _6  and  _7
REMARK    5  A    between atoms: _10  and  _12
REMARK    6  A    between atoms: _12  and  _13
REMARK    7  A    between atoms: _12  and  _15
REMARK    8  A    between atoms: _15  and  _16
REMARK    9  A    between atoms: _19  and  _21
REMARK   10  A    between atoms: _21  and  _22
REMARK   11  A    between atoms: _25  and  _27
REMARK   12  A    between atoms: _27  and  _28
REMARK   13  A    between atoms: _30  and  _32
REMARK   14  A    between atoms: _32  and  _33
REMARK   15  A    between atoms: _32  and  _35
REMARK   16  A    between atoms: _35  and  _36
REMARK   17  A    between atoms: _41  and  _43
REMARK   18  A    between atoms: _43  and  _44
REMARK   19  A    between atoms: _47  and  _49
REMARK   20  A    between atoms: _49  and  _50
REMARK   21  A    between atoms: _49  and  _52
REMARK   22  A    between atoms: _52  and  _53
REMARK   23  A    between atoms: _56  and  _58
REMARK   24  A    between atoms: _58  and  _59
REMARK   25  A    between atoms: _58  and  _61
REMARK   26  A    between atoms: _61  and  _62
REMARK   27  A    between atoms: _65  and  _67
REMARK   28  A    between atoms: _67  and  _68
REMARK   29  A    between atoms: _67  and  _70
REMARK   30  A    between atoms: _70  and  _71
REMARK   31  A    between atoms: _76  and  _77
REMARK   32  A    between atoms: _79  and  _81
REMARK   33  A    between atoms: _81  and  _82
REMARK   34  A    between atoms: _81  and  _84
REMARK   35  A    between atoms: _84  and  _85
REMARK   36  A    between atoms: _95  and  _97
REMARK   37  A    between atoms: _97  and  _98
REMARK   38  A    between atoms: _97  and  _100
REMARK   39  A    between atoms: _100  and  _101
REMARK   40  A    between atoms: _101  and  _102
REMARK   41  A    between atoms: _102  and  _103
REMARK   42  A    between atoms: _112  and  _114
REMARK   43  A    between atoms: _114  and  _115
REMARK   44  A    between atoms: _114  and  _117
REMARK   45  A    between atoms: _117  and  _118
REMARK   46  A    between atoms: _124  and  _126
REMARK   47  A    between atoms: _126  and  _127
REMARK   48  A    between atoms: _126  and  _129
REMARK   49  A    between atoms: _129  and  _130
REMARK   50  A    between atoms: _133  and  _135
REMARK   51  A    between atoms: _135  and  _136
REMARK   52  A    between atoms: _135  and  _138
REMARK   53  A    between atoms: _138  and  _139
REMARK   54  A    between atoms: _142  and  _144
REMARK   55  A    between atoms: _144  and  _145
REMARK   56  A    between atoms: _144  and  _147
REMARK   57  A    between atoms: _147  and  _148
REMARK   58  A    between atoms: _150  and  _152
REMARK   59  A    between atoms: _152  and  _153
REMARK   60  A    between atoms: _152  and  _155
REMARK   61  A    between atoms: _155  and  _156
REMARK   62  A    between atoms: _161  and  _162
REMARK   63  A    between atoms: _164  and  _166
REMARK   64  A    between atoms: _166  and  _167
REMARK   65  A    between atoms: _166  and  _169
REMARK   66  A    between atoms: _169  and  _170
REMARK   67  A    between atoms: _173  and  _175
REMARK   68  A    between atoms: _175  and  _176
REMARK   69  A    between atoms: _175  and  _178
REMARK   70  A    between atoms: _181  and  _183
REMARK   71  A    between atoms: _183  and  _184
REMARK   72  A    between atoms: _183  and  _186
REMARK   73  A    between atoms: _186  and  _187
REMARK   74  A    between atoms: _193  and  _195
REMARK   75  A    between atoms: _195  and  _196
REMARK   76  A    between atoms: _195  and  _198
REMARK   77  A    between atoms: _198  and  _199
REMARK   78  A    between atoms: _205  and  _207
REMARK   79  A    between atoms: _207  and  _208
REMARK   80  A    between atoms: _207  and  _210
REMARK   81  A    between atoms: _210  and  _211
REMARK   82  A    between atoms: _211  and  _212
REMARK   83  A    between atoms: _212  and  _213
REMARK   84  A    between atoms: _213  and  _214
REMARK   85  A    between atoms: _218  and  _220
REMARK   86  A    between atoms: _220  and  _221
REMARK   87  A    between atoms: _220  and  _223
REMARK   88  A    between atoms: _223  and  _224
REMARK   89  A    between atoms: _224  and  _225
REMARK   90  A    between atoms: _225  and  _226
REMARK   91  A    between atoms: _226  and  _227
REMARK   92  A    between atoms: _231  and  _233
REMARK   93  A    between atoms: _233  and  _234
REMARK   94  A    between atoms: _233  and  _236
REMARK   95  A    between atoms: _239  and  _241
REMARK   96  A    between atoms: _241  and  _242
REMARK   97  A    between atoms: _241  and  _244
REMARK   98  A    between atoms: _244  and  _245
REMARK   99  A    between atoms: _247  and  _249
REMARK  100  A    between atoms: _249  and  _250
REMARK  101  A    between atoms: _249  and  _252
REMARK  102  A    between atoms: _252  and  _253
REMARK  103  A    between atoms: _253  and  _254
REMARK  104  A    between atoms: _254  and  _255
REMARK  105  A    between atoms: _264  and  _266
REMARK  106  A    between atoms: _266  and  _267
REMARK  107  A    between atoms: _266  and  _269
REMARK  108  A    between atoms: _269  and  _270
REMARK  109  A    between atoms: _270  and  _271
REMARK  110  A    between atoms: _274  and  _276
REMARK  111  A    between atoms: _276  and  _277
REMARK  112  A    between atoms: _276  and  _279
REMARK  113  A    between atoms: _279  and  _280
REMARK  114  A    between atoms: _285  and  _286
REMARK  115  A    between atoms: _288  and  _290
REMARK  116  A    between atoms: _290  and  _291
REMARK  117  A    between atoms: _290  and  _293
REMARK  118  A    between atoms: _293  and  _294
REMARK  119  A    between atoms: _300  and  _302
REMARK  120  A    between atoms: _302  and  _303
REMARK  121  A    between atoms: _302  and  _305
REMARK  122  A    between atoms: _305  and  _306
REMARK  123  A    between atoms: _306  and  _307
REMARK  124  A    between atoms: _307  and  _308
REMARK  125  A    between atoms: _308  and  _309
REMARK  126  A    between atoms: _313  and  _315
REMARK  127  A    between atoms: _315  and  _316
REMARK  128  A    between atoms: _315  and  _318
REMARK  129  A    between atoms: _318  and  _319
REMARK  130  A    between atoms: _322  and  _324
REMARK  131  A    between atoms: _324  and  _325
REMARK  132  A    between atoms: _324  and  _327
REMARK  133  A    between atoms: _327  and  _328
REMARK                            x       y       z     vdW  Elec       q    Type
REMARK                         _______ _______ _______ _____ _____    ______ ____
ROOT
ATOM      1  CB  PHE A   1      21.847  67.943  60.376  0.00  0.00    +0.051 C 
ENDROOT
BRANCH   1   2
ATOM      2  CG  PHE A   1      22.934  68.973  60.584  0.00  0.00    -0.020 A 
ATOM      3  CD2 PHE A   1      23.048  69.697  61.767  0.00  0.00    -0.004 A 
ATOM      4  CE2 PHE A   1      24.062  70.625  61.931  0.00  0.00    -0.000 A 
ATOM      5  CZ  PHE A   1      24.999  70.816  60.928  0.00  0.00    -0.000 A 
ATOM      6  CE1 PHE A   1      24.910  70.095  59.767  0.00  0.00    -0.000 A 
ATOM      7  CD1 PHE A   1      23.900  69.168  59.602  0.00  0.00    -0.004 A 
ENDBRANCH   1   2
BRANCH   1   8
ATOM      8  CA  PHE A   1      20.838  67.820  61.534  0.00  0.00    +0.137 C 
BRANCH   8   9
ATOM      9  N   PHE A   1      21.432  67.160  62.678  0.00  0.00    -0.239 NA
ATOM     10  H   PHE A   1      22.033  66.326  62.520  0.00  0.00    +0.142 HD
ENDBRANCH   8   9
BRANCH   8  11
ATOM     11  C   PHE A   1      19.623  67.000  61.085  0.00  0.00    +0.224 C 
ATOM     12  O   PHE A   1      19.750  65.834  60.715  0.00  0.00    -0.287 OA
ENDBRANCH   8  11
ENDBRANCH   1   8
TORSDOF 4
REMARK  Name = ../refined-set-2016/3tf6/3tf6_pocket.pdb
REMARK  133 active torsions:
REMARK  status: ('A' for Active; 'I' for Inactive)
REMARK    1  A    between atoms: _1  and  _3
REMARK    2  A    between atoms: _3  and  _4
REMARK    3  A    between atoms: _3  and  _6
REMARK    4  A    between atoms: _6  and  _7
REMARK    5  A    between atoms: _10  and  _12
REMARK    6  A    between atoms: _12  and  _13
REMARK    7  A    between atoms: _12  and  _15
REMARK    8  A    between atoms: _15  and  _16
REMARK    9  A    between atoms: _19  and  _21
REMARK   10  A    between atoms: _21  and  _22
REMARK   11  A    between atoms: _25  and  _27
REMARK   12  A    between atoms: _27  and  _28
REMARK   13  A    between atoms: _30  and  _32
REMARK   14  A    between atoms: _32  and  _33
REMARK   15  A    between atoms: _32  and  _35
REMARK   16  A    between atoms: _35  and  _36
REMARK   17  A    between atoms: _41  and  _43
REMARK   18  A    between atoms: _43  and  _44
REMARK   19  A    between atoms: _47  and  _49
REMARK   20  A    between atoms: _49  and  _50
REMARK   21  A    between atoms: _49  and  _52
REMARK   22  A    between atoms: _52  and  _53
REMARK   23  A    between atoms: _56  and  _58
REMARK   24  A    between atoms: _58  and  _59
REMARK   25  A    between atoms: _58  and  _61
REMARK   26  A    between atoms: _61  and  _62
REMARK   27  A    between atoms: _65  and  _67
REMARK   28  A    between atoms: _67  and  _68
REMARK   29  A    between atoms: _67  and  _70
REMARK   30  A    between atoms: _70  and  _71
REMARK   31  A    between atoms: _76  and  _77
REMARK   32  A    between atoms: _79  and  _81
REMARK   33  A    between atoms: _81  and  _82
REMARK   34  A    between atoms: _81  and  _84
REMARK   35  A    between atoms: _84  and  _85
REMARK   36  A    between atoms: _95  and  _97
REMARK   37  A    between atoms: _97  and  _98
REMARK   38  A    between atoms: _97  and  _100
REMARK   39  A    between atoms: _100  and  _101
REMARK   40  A    between atoms: _101  and  _102
REMARK   41  A    between atoms: _102  and  _103
REMARK   42  A    between atoms: _112  and  _114
REMARK   43  A    between atoms: _114  and  _115
REMARK   44  A    between atoms: _114  and  _117
REMARK   45  A    between atoms: _117  and  _118
REMARK   46  A    between atoms: _124  and  _126
REMARK   47  A    between atoms: _126  and  _127
REMARK   48  A    between atoms: _126  and  _129
REMARK   49  A    between atoms: _129  and  _130
REMARK   50  A    between atoms: _133  and  _135
REMARK   51  A    between atoms: _135  and  _136
REMARK   52  A    between atoms: _135  and  _138
REMARK   53  A    between atoms: _138  and  _139
REMARK   54  A    between atoms: _142  and  _144
REMARK   55  A    between atoms: _144  and  _145
REMARK   56  A    between atoms: _144  and  _147
REMARK   57  A    between atoms: _147  and  _148
REMARK   58  A    between atoms: _150  and  _152
REMARK   59  A    between atoms: _152  and  _153
REMARK   60  A    between atoms: _152  and  _155
REMARK   61  A    between atoms: _155  and  _156
REMARK   62  A    between atoms: _161  and  _162
REMARK   63  A    between atoms: _164  and  _166
REMARK   64  A    between atoms: _166  and  _167
REMARK   65  A    between atoms: _166  and  _169
REMARK   66  A    between atoms: _169  and  _170
REMARK   67  A    between atoms: _173  and  _175
REMARK   68  A    between atoms: _175  and  _176
REMARK   69  A    between atoms: _175  and  _178
REMARK   70  A    between atoms: _181  and  _183
REMARK   71  A    between atoms: _183  and  _184
REMARK   72  A    between atoms: _183  and  _186
REMARK   73  A    between atoms: _186  and  _187
REMARK   74  A    between atoms: _193  and  _195
REMARK   75  A    between atoms: _195  and  _196
REMARK   76  A    between atoms: _195  and  _198
REMARK   77  A    between atoms: _198  and  _199
REMARK   78  A    between atoms: _205  and  _207
REMARK   79  A    between atoms: _207  and  _208
REMARK   80  A    between atoms: _207  and  _210
REMARK   81  A    between atoms: _210  and  _211
REMARK   82  A    between atoms: _211  and  _212
REMARK   83  A    between atoms: _212  and  _213
REMARK   84  A    between atoms: _213  and  _214
REMARK   85  A    between atoms: _218  and  _220
REMARK   86  A    between atoms: _220  and  _221
REMARK   87  A    between atoms: _220  and  _223
REMARK   88  A    between atoms: _223  and  _224
REMARK   89  A    between atoms: _224  and  _225
REMARK   90  A    between atoms: _225  and  _226
REMARK   91  A    between atoms: _226  and  _227
REMARK   92  A    between atoms: _231  and  _233
REMARK   93  A    between atoms: _233  and  _234
REMARK   94  A    between atoms: _233  and  _236
REMARK   95  A    between atoms: _239  and  _241
REMARK   96  A    between atoms: _241  and  _242
REMARK   97  A    between atoms: _241  and  _244
REMARK   98  A    between atoms: _244  and  _245
REMARK   99  A    between atoms: _247  and  _249
REMARK  100  A    between atoms: _249  and  _250
REMARK  101  A    between atoms: _249  and  _252
REMARK  102  A    between atoms: _252  and  _253
REMARK  103  A    between atoms: _253  and  _254
REMARK  104  A    between atoms: _254  and  _255
REMARK  105  A    between atoms: _264  and  _266
REMARK  106  A    between atoms: _266  and  _267
REMARK  107  A    between atoms: _266  and  _269
REMARK  108  A    between atoms: _269  and  _270
REMARK  109  A    between atoms: _270  and  _271
REMARK  110  A    between atoms: _274  and  _276
REMARK  111  A    between atoms: _276  and  _277
REMARK  112  A    between atoms: _276  and  _279
REMARK  113  A    between atoms: _279  and  _280
REMARK  114  A    between atoms: _285  and  _286
REMARK  115  A    between atoms: _288  and  _290
REMARK  116  A    between atoms: _290  and  _291
REMARK  117  A    between atoms: _290  and  _293
REMARK  118  A    between atoms: _293  and  _294
REMARK  119  A    between atoms: _300  and  _302
REMARK  120  A    between atoms: _302  and  _303
REMARK  121  A    between atoms: _302  and  _305
REMARK  122  A    between atoms: _305  and  _306
REMARK  123  A    between atoms: _306  and  _307
REMARK  124  A    between atoms: _307  and  _308
REMARK  125  A    between atoms: _308  and  _309
REMARK  126  A    between atoms: _313  and  _315
REMARK  127  A    between atoms: _315  and  _316
REMARK  128  A    between atoms: _315  and  _318
REMARK  129  A    between atoms: _318  and  _319
REMARK  130  A    between atoms: _322  and  _324
REMARK  131  A    between atoms: _324  and  _325
REMARK  132  A    between atoms: _324  and  _327
REMARK  133  A    between atoms: _327  and  _328
REMARK                            x       y       z     vdW  Elec       q    Type
REMARK                         _______ _______ _______ _____ _____    ______ ____
ROOT
ATOM      1  CA  LEU A   1      18.994  71.680  64.058  0.00  0.00    +0.133 C 
ENDROOT
BRANCH   1   2
ATOM      2  N   LEU A   1      18.260  72.165  62.912  0.00  0.00    -0.239 NA
ATOM      3  H   LEU A   1      17.836  73.114  62.951  0.00  0.00    +0.142 HD
ENDBRANCH   1   2
BRANCH   1   4
ATOM      4  C   LEU A   1      18.034  70.981  64.967  0.00  0.00    +0.224 C 
ATOM      5  O   LEU A   1      17.026  71.553  65.371  0.00  0.00    -0.287 OA
ENDBRANCH   1   4
BRANCH   1   6
ATOM      6  CB  LEU A   1      19.659  72.839  64.787  0.00  0.00    +0.025 C 
BRANCH   6   7
ATOM      7  CG  LEU A   1      20.695  72.501  65.868  0.00  0.00    +0.002 C 
ATOM      8  CD2 LEU A   1      21.101  73.750  66.618  0.00  0.00    +0.000 C 
ATOM      9  CD1 LEU A   1      21.904  71.817  65.256  0.00  0.00    +0.000 C 
ENDBRANCH   6   7
ENDBRANCH   1   6
TORSDOF 4
REMARK  Name = ../refined-set-2016/3tf6/3tf6_pocket.pdb
REMARK  133 active torsions:
REMARK  status: ('A' for Active; 'I' for Inactive)
REMARK    1  A    between atoms: _1  and  _3
REMARK    2  A    between atoms: _3  and  _4
REMARK    3  A    between atoms: _3  and  _6
REMARK    4  A    between atoms: _6  and  _7
REMARK    5  A    between atoms: _10  and  _12
REMARK    6  A    between atoms: _12  and  _13
REMARK    7  A    between atoms: _12  and  _15
REMARK    8  A    between atoms: _15  and  _16
REMARK    9  A    between atoms: _19  and  _21
REMARK   10  A    between atoms: _21  and  _22
REMARK   11  A    between atoms: _25  and  _27
REMARK   12  A    between atoms: _27  and  _28
REMARK   13  A    between atoms: _30  and  _32
REMARK   14  A    between atoms: _32  and  _33
REMARK   15  A    between atoms: _32  and  _35
REMARK   16  A    between atoms: _35  and  _36
REMARK   17  A    between atoms: _41  and  _43
REMARK   18  A    between atoms: _43  and  _44
REMARK   19  A    between atoms: _47  and  _49
REMARK   20  A    between atoms: _49  and  _50
REMARK   21  A    between atoms: _49  and  _52
REMARK   22  A    between atoms: _52  and  _53
REMARK   23  A    between atoms: _56  and  _58
REMARK   24  A    between atoms: _58  and  _59
REMARK   25  A    between atoms: _58  and  _61
REMARK   26  A    between atoms: _61  and  _62
REMARK   27  A    between atoms: _65  and  _67
REMARK   28  A    between atoms: _67  and  _68
REMARK   29  A    between atoms: _67  and  _70
REMARK   30  A    between atoms: _70  and  _71
REMARK   31  A    between atoms: _76  and  _77
REMARK   32  A    between atoms: _79  and  _81
REMARK   33  A    between atoms: _81  and  _82
REMARK   34  A    between atoms: _81  and  _84
REMARK   35  A    between atoms: _84  and  _85
REMARK   36  A    between atoms: _95  and  _97
REMARK   37  A    between atoms: _97  and  _98
REMARK   38  A    between atoms: _97  and  _100
REMARK   39  A    between atoms: _100  and  _101
REMARK   40  A    between atoms: _101  and  _102
REMARK   41  A    between atoms: _102  and  _103
REMARK   42  A    between atoms: _112  and  _114
REMARK   43  A    between atoms: _114  and  _115
REMARK   44  A    between atoms: _114  and  _117
REMARK   45  A    between atoms: _117  and  _118
REMARK   46  A    between atoms: _124  and  _126
REMARK   47  A    between atoms: _126  and  _127
REMARK   48  A    between atoms: _126  and  _129
REMARK   49  A    between atoms: _129  and  _130
REMARK   50  A    between atoms: _133  and  _135
REMARK   51  A    between atoms: _135  and  _136
REMARK   52  A    between atoms: _135  and  _138
REMARK   53  A    between atoms: _138  and  _139
REMARK   54  A    between atoms: _142  and  _144
REMARK   55  A    between atoms: _144  and  _145
REMARK   56  A    between atoms: _144  and  _147
REMARK   57  A    between atoms: _147  and  _148
REMARK   58  A    between atoms: _150  and  _152
REMARK   59  A    between atoms: _152  and  _153
REMARK   60  A    between atoms: _152  and  _155
REMARK   61  A    between atoms: _155  and  _156
REMARK   62  A    between atoms: _161  and  _162
REMARK   63  A    between atoms: _164  and  _166
REMARK   64  A    between atoms: _166  and  _167
REMARK   65  A    between atoms: _166  and  _169
REMARK   66  A    between atoms: _169  and  _170
REMARK   67  A    between atoms: _173  and  _175
REMARK   68  A    between atoms: _175  and  _176
REMARK   69  A    between atoms: _175  and  _178
REMARK   70  A    between atoms: _181  and  _183
REMARK   71  A    between atoms: _183  and  _184
REMARK   72  A    between atoms: _183  and  _186
REMARK   73  A    between atoms: _186  and  _187
REMARK   74  A    between atoms: _193  and  _195
REMARK   75  A    between atoms: _195  and  _196
REMARK   76  A    between atoms: _195  and  _198
REMARK   77  A    between atoms: _198  and  _199
REMARK   78  A    between atoms: _205  and  _207
REMARK   79  A    between atoms: _207  and  _208
REMARK   80  A    between atoms: _207  and  _210
REMARK   81  A    between atoms: _210  and  _211
REMARK   82  A    between atoms: _211  and  _212
REMARK   83  A    between atoms: _212  and  _213
REMARK   84  A    between atoms: _213  and  _214
REMARK   85  A    between atoms: _218  and  _220
REMARK   86  A    between atoms: _220  and  _221
REMARK   87  A    between atoms: _220  and  _223
REMARK   88  A    between atoms: _223  and  _224
REMARK   89  A    between atoms: _224  and  _225
REMARK   90  A    between atoms: _225  and  _226
REMARK   91  A    between atoms: _226  and  _227
REMARK   92  A    between atoms: _231  and  _233
REMARK   93  A    between atoms: _233  and  _234
REMARK   94  A    between atoms: _233  and  _236
REMARK   95  A    between atoms: _239  and  _241
REMARK   96  A    between atoms: _241  and  _242
REMARK   97  A    between atoms: _241  and  _244
REMARK   98  A    between atoms: _244  and  _245
REMARK   99  A    between atoms: _247  and  _249
REMARK  100  A    between atoms: _249  and  _250
REMARK  101  A    between atoms: _249  and  _252
REMARK  102  A    between atoms: _252  and  _253
REMARK  103  A    between atoms: _253  and  _254
REMARK  104  A    between atoms: _254  and  _255
REMARK  105  A    between atoms: _264  and  _266
REMARK  106  A    between atoms: _266  and  _267
REMARK  107  A    between atoms: _266  and  _269
REMARK  108  A    between atoms: _269  and  _270
REMARK  109  A    between atoms: _270  and  _271
REMARK  110  A    between atoms: _274  and  _276
REMARK  111  A    between atoms: _276  and  _277
REMARK  112  A    between atoms: _276  and  _279
REMARK  113  A    between atoms: _279  and  _280
REMARK  114  A    between atoms: _285  and  _286
REMARK  115  A    between atoms: _288  and  _290
REMARK  116  A    between atoms: _290  and  _291
REMARK  117  A    between atoms: _290  and  _293
REMARK  118  A    between atoms: _293  and  _294
REMARK  119  A    between atoms: _300  and  _302
REMARK  120  A    between atoms: _302  and  _303
REMARK  121  A    between atoms: _302  and  _305
REMARK  122  A    between atoms: _305  and  _306
REMARK  123  A    between atoms: _306  and  _307
REMARK  124  A    between atoms: _307  and  _308
REMARK  125  A    between atoms: _308  and  _309
REMARK  126  A    between atoms: _313  and  _315
REMARK  127  A    between atoms: _315  and  _316
REMARK  128  A    between atoms: _315  and  _318
REMARK  129  A    between atoms: _318  and  _319
REMARK  130  A    between atoms: _322  and  _324
REMARK  131  A    between atoms: _324  and  _325
REMARK  132  A    between atoms: _324  and  _327
REMARK  133  A    between atoms: _327  and  _328
REMARK                            x       y       z     vdW  Elec       q    Type
REMARK                         _______ _______ _______ _____ _____    ______ ____
ROOT
ATOM      1  CA  LEU A   1      19.040  79.969  69.481  0.00  0.00    +0.133 C 
ENDROOT
BRANCH   1   2
ATOM      2  N   LEU A   1      19.112  80.389  70.882  0.00  0.00    -0.239 NA
ATOM      3  H   LEU A   1      19.151  79.662  71.625  0.00  0.00    +0.142 HD
ENDBRANCH   1   2
BRANCH   1   4
ATOM      4  C   LEU A   1      17.601  79.775  69.064  0.00  0.00    +0.224 C 
ATOM      5  O   LEU A   1      16.916  78.929  69.623  0.00  0.00    -0.287 OA
ENDBRANCH   1   4
BRANCH   1   6
ATOM      6  CB  LEU A   1      19.818  78.674  69.287  0.00  0.00    +0.025 C 
BRANCH   6   7
ATOM      7  CG  LEU A   1      20.114  78.223  67.858  0.00  0.00    +0.002 C 
ATOM      8  CD2 LEU A   1      20.824  76.867  67.909  0.00  0.00    +0.000 C 
ATOM      9  CD1 LEU A   1      20.943  79.245  67.105  0.00  0.00    +0.000 C 
ENDBRANCH   6   7
ENDBRANCH   1   6
TORSDOF 4
REMARK  Name = ../refined-set-2016/3tf6/3tf6_pocket.pdb
REMARK  133 active torsions:
REMARK  status: ('A' for Active; 'I' for Inactive)
REMARK    1  A    between atoms: _1  and  _3
REMARK    2  A    between atoms: _3  and  _4
REMARK    3  A    between atoms: _3  and  _6
REMARK    4  A    between atoms: _6  and  _7
REMARK    5  A    between atoms: _10  and  _12
REMARK    6  A    between atoms: _12  and  _13
REMARK    7  A    between atoms: _12  and  _15
REMARK    8  A    between atoms: _15  and  _16
REMARK    9  A    between atoms: _19  and  _21
REMARK   10  A    between atoms: _21  and  _22
REMARK   11  A    between atoms: _25  and  _27
REMARK   12  A    between atoms: _27  and  _28
REMARK   13  A    between atoms: _30  and  _32
REMARK   14  A    between atoms: _32  and  _33
REMARK   15  A    between atoms: _32  and  _35
REMARK   16  A    between atoms: _35  and  _36
REMARK   17  A    between atoms: _41  and  _43
REMARK   18  A    between atoms: _43  and  _44
REMARK   19  A    between atoms: _47  and  _49
REMARK   20  A    between atoms: _49  and  _50
REMARK   21  A    between atoms: _49  and  _52
REMARK   22  A    between atoms: _52  and  _53
REMARK   23  A    between atoms: _56  and  _58
REMARK   24  A    between atoms: _58  and  _59
REMARK   25  A    between atoms: _58  and  _61
REMARK   26  A    between atoms: _61  and  _62
REMARK   27  A    between atoms: _65  and  _67
REMARK   28  A    between atoms: _67  and  _68
REMARK   29  A    between atoms: _67  and  _70
REMARK   30  A    between atoms: _70  and  _71
REMARK   31  A    between atoms: _76  and  _77
REMARK   32  A    between atoms: _79  and  _81
REMARK   33  A    between atoms: _81  and  _82
REMARK   34  A    between atoms: _81  and  _84
REMARK   35  A    between atoms: _84  and  _85
REMARK   36  A    between atoms: _95  and  _97
REMARK   37  A    between atoms: _97  and  _98
REMARK   38  A    between atoms: _97  and  _100
REMARK   39  A    between atoms: _100  and  _101
REMARK   40  A    between atoms: _101  and  _102
REMARK   41  A    between atoms: _102  and  _103
REMARK   42  A    between atoms: _112  and  _114
REMARK   43  A    between atoms: _114  and  _115
REMARK   44  A    between atoms: _114  and  _117
REMARK   45  A    between atoms: _117  and  _118
REMARK   46  A    between atoms: _124  and  _126
REMARK   47  A    between atoms: _126  and  _127
REMARK   48  A    between atoms: _126  and  _129
REMARK   49  A    between atoms: _129  and  _130
REMARK   50  A    between atoms: _133  and  _135
REMARK   51  A    between atoms: _135  and  _136
REMARK   52  A    between atoms: _135  and  _138
REMARK   53  A    between atoms: _138  and  _139
REMARK   54  A    between atoms: _142  and  _144
REMARK   55  A    between atoms: _144  and  _145
REMARK   56  A    between atoms: _144  and  _147
REMARK   57  A    between atoms: _147  and  _148
REMARK   58  A    between atoms: _150  and  _152
REMARK   59  A    between atoms: _152  and  _153
REMARK   60  A    between atoms: _152  and  _155
REMARK   61  A    between atoms: _155  and  _156
REMARK   62  A    between atoms: _161  and  _162
REMARK   63  A    between atoms: _164  and  _166
REMARK   64  A    between atoms: _166  and  _167
REMARK   65  A    between atoms: _166  and  _169
REMARK   66  A    between atoms: _169  and  _170
REMARK   67  A    between atoms: _173  and  _175
REMARK   68  A    between atoms: _175  and  _176
REMARK   69  A    between atoms: _175  and  _178
REMARK   70  A    between atoms: _181  and  _183
REMARK   71  A    between atoms: _183  and  _184
REMARK   72  A    between atoms: _183  and  _186
REMARK   73  A    between atoms: _186  and  _187
REMARK   74  A    between atoms: _193  and  _195
REMARK   75  A    between atoms: _195  and  _196
REMARK   76  A    between atoms: _195  and  _198
REMARK   77  A    between atoms: _198  and  _199
REMARK   78  A    between atoms: _205  and  _207
REMARK   79  A    between atoms: _207  and  _208
REMARK   80  A    between atoms: _207  and  _210
REMARK   81  A    between atoms: _210  and  _211
REMARK   82  A    between atoms: _211  and  _212
REMARK   83  A    between atoms: _212  and  _213
REMARK   84  A    between atoms: _213  and  _214
REMARK   85  A    between atoms: _218  and  _220
REMARK   86  A    between atoms: _220  and  _221
REMARK   87  A    between atoms: _220  and  _223
REMARK   88  A    between atoms: _223  and  _224
REMARK   89  A    between atoms: _224  and  _225
REMARK   90  A    between atoms: _225  and  _226
REMARK   91  A    between atoms: _226  and  _227
REMARK   92  A    between atoms: _231  and  _233
REMARK   93  A    between atoms: _233  and  _234
REMARK   94  A    between atoms: _233  and  _236
REMARK   95  A    between atoms: _239  and  _241
REMARK   96  A    between atoms: _241  and  _242
REMARK   97  A    between atoms: _241  and  _244
REMARK   98  A    between atoms: _244  and  _245
REMARK   99  A    between atoms: _247  and  _249
REMARK  100  A    between atoms: _249  and  _250
REMARK  101  A    between atoms: _249  and  _252
REMARK  102  A    between atoms: _252  and  _253
REMARK  103  A    between atoms: _253  and  _254
REMARK  104  A    between atoms: _254  and  _255
REMARK  105  A    between atoms: _264  and  _266
REMARK  106  A    between atoms: _266  and  _267
REMARK  107  A    between atoms: _266  and  _269
REMARK  108  A    between atoms: _269  and  _270
REMARK  109  A    between atoms: _270  and  _271
REMARK  110  A    between atoms: _274  and  _276
REMARK  111  A    between atoms: _276  and  _277
REMARK  112  A    between atoms: _276  and  _279
REMARK  113  A    between atoms: _279  and  _280
REMARK  114  A    between atoms: _285  and  _286
REMARK  115  A    between atoms: _288  and  _290
REMARK  116  A    between atoms: _290  and  _291
REMARK  117  A    between atoms: _290  and  _293
REMARK  118  A    between atoms: _293  and  _294
REMARK  119  A    between atoms: _300  and  _302
REMARK  120  A    between atoms: _302  and  _303
REMARK  121  A    between atoms: _302  and  _305
REMARK  122  A    between atoms: _305  and  _306
REMARK  123  A    between atoms: _306  and  _307
REMARK  124  A    between atoms: _307  and  _308
REMARK  125  A    between atoms: _308  and  _309
REMARK  126  A    between atoms: _313  and  _315
REMARK  127  A    between atoms: _315  and  _316
REMARK  128  A    between atoms: _315  and  _318
REMARK  129  A    between atoms: _318  and  _319
REMARK  130  A    between atoms: _322  and  _324
REMARK  131  A    between atoms: _324  and  _325
REMARK  132  A    between atoms: _324  and  _327
REMARK  133  A    between atoms: _327  and  _328
REMARK                            x       y       z     vdW  Elec       q    Type
REMARK                         _______ _______ _______ _____ _____    ______ ____
ROOT
ATOM      1  CA  TYR A   2      19.124  77.248  62.365  0.00  0.00    +0.153 C 
ENDROOT
BRANCH   1   4
ATOM      2  C   SER A   1      17.968  78.914  63.696  0.00  0.00    +0.241 C 
ATOM      3  O   SER A   1      19.009  79.433  64.062  0.00  0.00    -0.274 OA
ATOM      4  N   TYR A   2      17.925  77.871  62.876  0.00  0.00    -0.297 N 
ATOM      5  H   TYR A   2      16.999  77.491  62.593  0.00  0.00    +0.150 HD
BRANCH   2   6
ATOM      6  CA  SER A   1      16.623  79.458  64.171  0.00  0.00    +0.174 C 
BRANCH   6   7
ATOM      7  N   SER A   1      16.705  79.840  65.544  0.00  0.00    -0.236 NA
ATOM      8  H   SER A   1      17.632  80.025  65.977  0.00  0.00    +0.142 HD
ENDBRANCH   6   7
BRANCH   6   9
ATOM      9  CB  SER A   1      16.221  80.673  63.363  0.00  0.00    +0.163 C 
BRANCH   9  10
ATOM     10  OG  SER A   1      16.136  80.339  62.034  0.00  0.00    -0.380 OA
ATOM     11  H   SER A   1      17.016  80.012  61.720  0.00  0.00    +0.211 HD
ENDBRANCH   9  10
ENDBRANCH   6   9
ENDBRANCH   2   6
ENDBRANCH   1   4
BRANCH   1  12
ATOM     12  C   TYR A   2      18.829  76.501  61.081  0.00  0.00    +0.241 C 
ATOM     13  O   TYR A   2      17.943  75.680  61.046  0.00  0.00    -0.273 OA
ATOM     14  N   LEU A   3      19.562  76.813  60.019  0.00  0.00    -0.297 N 
ATOM     15  H   LEU A   3      20.340  77.495  60.128  0.00  0.00    +0.150 HD
BRANCH  14  16
ATOM     16  CA  LEU A   3      19.314  76.234  58.709  0.00  0.00    +0.149 C 
BRANCH  16  17
ATOM     17  C   LEU A   3      20.624  75.801  58.088  0.00  0.00    +0.241 C 
ATOM     18  O   LEU A   3      21.617  76.539  58.141  0.00  0.00    -0.273 OA
ATOM     19  N   VAL A   4      20.614  74.615  57.478  0.00  0.00    -0.298 N 
ATOM     20  H   VAL A   4      19.767  74.016  57.548  0.00  0.00    +0.150 HD
BRANCH  19  21
ATOM     21  CA  VAL A   4      21.746  74.144  56.725  0.00  0.00    +0.137 C 
BRANCH  21  22
ATOM     22  CB  VAL A   4      22.311  72.842  57.300  0.00  0.00    +0.026 C 
ATOM     23  CG2 VAL A   4      22.540  72.999  58.781  0.00  0.00    +0.002 C 
ATOM     24  CG1 VAL A   4      23.601  72.476  56.571  0.00  0.00    +0.002 C 
ENDBRANCH  21  22
BRANCH  21  25
ATOM     25  C   VAL A   4      21.300  73.871  55.312  0.00  0.00    +0.227 C 
ATOM     26  O   VAL A   4      20.263  73.233  55.089  0.00  0.00    -0.286 OA
ENDBRANCH  21  25
ENDBRANCH  19  21
ENDBRANCH  16  17
BRANCH  16  27
ATOM     27  CB  LEU A   3      18.621  77.237  57.775  0.00  0.00    +0.029 C 
BRANCH  27  28
ATOM     28  CG  LEU A   3      18.361  76.750  56.314  0.00  0.00    +0.002 C 
ATOM     29  CD2 LEU A   3      17.222  75.719  56.298  0.00  0.00    +0.000 C 
ATOM     30  CD1 LEU A   3      18.060  77.892  55.351  0.00  0.00    +0.000 C 
ENDBRANCH  27  28
ENDBRANCH  16  27
ENDBRANCH  14  16
ENDBRANCH   1  12
BRANCH   1  31
ATOM     31  CB  TYR A   2      19.691  76.286  63.393  0.00  0.00    +0.055 C 
BRANCH  31  32
ATOM     32  CG  TYR A   2      21.138  75.883  63.114  0.00  0.00    -0.020 A 
ATOM     33  CD2 TYR A   2      22.191  76.553  63.719  0.00  0.00    -0.001 A 
ATOM     34  CE2 TYR A   2      23.499  76.177  63.504  0.00  0.00    +0.036 A 
ATOM     35  CZ  TYR A   2      23.757  75.119  62.659  0.00  0.00    +0.134 A 
ATOM     36  CE1 TYR A   2      22.723  74.443  62.041  0.00  0.00    +0.036 A 
ATOM     37  CD1 TYR A   2      21.430  74.817  62.286  0.00  0.00    -0.001 A 
BRANCH  35  38
ATOM     38  OH  TYR A   2      25.043  74.766  62.411  0.00  0.00    -0.506 OA
ATOM     39  HH  TYR A   2      25.058  73.995  61.790  0.00  0.00    +0.292 HD
ENDBRANCH  35  38
ENDBRANCH  31  32
ENDBRANCH   1  31
TORSDOF 16
REMARK  Name = ../refined-set-2016/3tf6/3tf6_pocket.pdb
REMARK  133 active torsions:
REMARK  status: ('A' for Active; 'I' for Inactive)
REMARK    1  A    between atoms: _1  and  _3
REMARK    2  A    between atoms: _3  and  _4
REMARK    3  A    between atoms: _3  and  _6
REMARK    4  A    between atoms: _6  and  _7
REMARK    5  A    between atoms: _10  and  _12
REMARK    6  A    between atoms: _12  and  _13
REMARK    7  A    between atoms: _12  and  _15
REMARK    8  A    between atoms: _15  and  _16
REMARK    9  A    between atoms: _19  and  _21
REMARK   10  A    between atoms: _21  and  _22
REMARK   11  A    between atoms: _25  and  _27
REMARK   12  A    between atoms: _27  and  _28
REMARK   13  A    between atoms: _30  and  _32
REMARK   14  A    between atoms: _32  and  _33
REMARK   15  A    between atoms: _32  and  _35
REMARK   16  A    between atoms: _35  and  _36
REMARK   17  A    between atoms: _41  and  _43
REMARK   18  A    between atoms: _43  and  _44
REMARK   19  A    between atoms: _47  and  _49
REMARK   20  A    between atoms: _49  and  _50
REMARK   21  A    between atoms: _49  and  _52
REMARK   22  A    between atoms: _52  and  _53
REMARK   23  A    between atoms: _56  and  _58
REMARK   24  A    between atoms: _58  and  _59
REMARK   25  A    between atoms: _58  and  _61
REMARK   26  A    between atoms: _61  and  _62
REMARK   27  A    between atoms: _65  and  _67
REMARK   28  A    between atoms: _67  and  _68
REMARK   29  A    between atoms: _67  and  _70
REMARK   30  A    between atoms: _70  and  _71
REMARK   31  A    between atoms: _76  and  _77
REMARK   32  A    between atoms: _79  and  _81
REMARK   33  A    between atoms: _81  and  _82
REMARK   34  A    between atoms: _81  and  _84
REMARK   35  A    between atoms: _84  and  _85
REMARK   36  A    between atoms: _95  and  _97
REMARK   37  A    between atoms: _97  and  _98
REMARK   38  A    between atoms: _97  and  _100
REMARK   39  A    between atoms: _100  and  _101
REMARK   40  A    between atoms: _101  and  _102
REMARK   41  A    between atoms: _102  and  _103
REMARK   42  A    between atoms: _112  and  _114
REMARK   43  A    between atoms: _114  and  _115
REMARK   44  A    between atoms: _114  and  _117
REMARK   45  A    between atoms: _117  and  _118
REMARK   46  A    between atoms: _124  and  _126
REMARK   47  A    between atoms: _126  and  _127
REMARK   48  A    between atoms: _126  and  _129
REMARK   49  A    between atoms: _129  and  _130
REMARK   50  A    between atoms: _133  and  _135
REMARK   51  A    between atoms: _135  and  _136
REMARK   52  A    between atoms: _135  and  _138
REMARK   53  A    between atoms: _138  and  _139
REMARK   54  A    between atoms: _142  and  _144
REMARK   55  A    between atoms: _144  and  _145
REMARK   56  A    between atoms: _144  and  _147
REMARK   57  A    between atoms: _147  and  _148
REMARK   58  A    between atoms: _150  and  _152
REMARK   59  A    between atoms: _152  and  _153
REMARK   60  A    between atoms: _152  and  _155
REMARK   61  A    between atoms: _155  and  _156
REMARK   62  A    between atoms: _161  and  _162
REMARK   63  A    between atoms: _164  and  _166
REMARK   64  A    between atoms: _166  and  _167
REMARK   65  A    between atoms: _166  and  _169
REMARK   66  A    between atoms: _169  and  _170
REMARK   67  A    between atoms: _173  and  _175
REMARK   68  A    between atoms: _175  and  _176
REMARK   69  A    between atoms: _175  and  _178
REMARK   70  A    between atoms: _181  and  _183
REMARK   71  A    between atoms: _183  and  _184
REMARK   72  A    between atoms: _183  and  _186
REMARK   73  A    between atoms: _186  and  _187
REMARK   74  A    between atoms: _193  and  _195
REMARK   75  A    between atoms: _195  and  _196
REMARK   76  A    between atoms: _195  and  _198
REMARK   77  A    between atoms: _198  and  _199
REMARK   78  A    between atoms: _205  and  _207
REMARK   79  A    between atoms: _207  and  _208
REMARK   80  A    between atoms: _207  and  _210
REMARK   81  A    between atoms: _210  and  _211
REMARK   82  A    between atoms: _211  and  _212
REMARK   83  A    between atoms: _212  and  _213
REMARK   84  A    between atoms: _213  and  _214
REMARK   85  A    between atoms: _218  and  _220
REMARK   86  A    between atoms: _220  and  _221
REMARK   87  A    between atoms: _220  and  _223
REMARK   88  A    between atoms: _223  and  _224
REMARK   89  A    between atoms: _224  and  _225
REMARK   90  A    between atoms: _225  and  _226
REMARK   91  A    between atoms: _226  and  _227
REMARK   92  A    between atoms: _231  and  _233
REMARK   93  A    between atoms: _233  and  _234
REMARK   94  A    between atoms: _233  and  _236
REMARK   95  A    between atoms: _239  and  _241
REMARK   96  A    between atoms: _241  and  _242
REMARK   97  A    between atoms: _241  and  _244
REMARK   98  A    between atoms: _244  and  _245
REMARK   99  A    between atoms: _247  and  _249
REMARK  100  A    between atoms: _249  and  _250
REMARK  101  A    between atoms: _249  and  _252
REMARK  102  A    between atoms: _252  and  _253
REMARK  103  A    between atoms: _253  and  _254
REMARK  104  A    between atoms: _254  and  _255
REMARK  105  A    between atoms: _264  and  _266
REMARK  106  A    between atoms: _266  and  _267
REMARK  107  A    between atoms: _266  and  _269
REMARK  108  A    between atoms: _269  and  _270
REMARK  109  A    between atoms: _270  and  _271
REMARK  110  A    between atoms: _274  and  _276
REMARK  111  A    between atoms: _276  and  _277
REMARK  112  A    between atoms: _276  and  _279
REMARK  113  A    between atoms: _279  and  _280
REMARK  114  A    between atoms: _285  and  _286
REMARK  115  A    between atoms: _288  and  _290
REMARK  116  A    between atoms: _290  and  _291
REMARK  117  A    between atoms: _290  and  _293
REMARK  118  A    between atoms: _293  and  _294
REMARK  119  A    between atoms: _300  and  _302
REMARK  120  A    between atoms: _302  and  _303
REMARK  121  A    between atoms: _302  and  _305
REMARK  122  A    between atoms: _305  and  _306
REMARK  123  A    between atoms: _306  and  _307
REMARK  124  A    between atoms: _307  and  _308
REMARK  125  A    between atoms: _308  and  _309
REMARK  126  A    between atoms: _313  and  _315
REMARK  127  A    between atoms: _315  and  _316
REMARK  128  A    between atoms: _315  and  _318
REMARK  129  A    between atoms: _318  and  _319
REMARK  130  A    between atoms: _322  and  _324
REMARK  131  A    between atoms: _324  and  _325
REMARK  132  A    between atoms: _324  and  _327
REMARK  133  A    between atoms: _327  and  _328
REMARK                            x       y       z     vdW  Elec       q    Type
REMARK                         _______ _______ _______ _____ _____    ______ ____
ROOT
ATOM      1  CA  LYS A   3      22.311  80.386  58.861  0.00  0.00    +0.149 C 
ENDROOT
BRANCH   1   2
ATOM      2  C   LYS A   3      21.633  80.129  60.178  0.00  0.00    +0.241 C 
ATOM      3  N   LYS A   4      21.903  80.979  61.157  0.00  0.00    -0.297 N 
ATOM      4  H   LYS A   4      22.599  81.735  61.000  0.00  0.00    +0.150 HD
ATOM      5  O   LYS A   3      20.870  79.182  60.307  0.00  0.00    -0.273 OA
BRANCH   3   6
ATOM      6  CA  LYS A   4      21.256  80.875  62.421  0.00  0.00    +0.149 C 
BRANCH   6   7
ATOM      7  C   LYS A   4      20.907  82.233  62.996  0.00  0.00    +0.241 C 
ATOM      8  N   VAL A   5      19.876  82.255  63.846  0.00  0.00    -0.297 N 
ATOM      9  H   VAL A   5      19.295  81.399  63.956  0.00  0.00    +0.150 HD
ATOM     10  O   LYS A   4      21.536  83.236  62.665  0.00  0.00    -0.273 OA
BRANCH   8  11
ATOM     11  CA  VAL A   5      19.542  83.435  64.620  0.00  0.00    +0.149 C 
BRANCH  11  12
ATOM     12  C   VAL A   5      19.783  83.103  66.087  0.00  0.00    +0.241 C 
ATOM     13  N   SER A   6      20.708  83.826  66.704  0.00  0.00    -0.296 N 
ATOM     14  H   SER A   6      21.176  84.591  66.177  0.00  0.00    +0.150 HD
ATOM     15  O   VAL A   5      19.195  82.179  66.620  0.00  0.00    -0.273 OA
BRANCH  13  16
ATOM     16  CA  SER A   6      21.096  83.594  68.089  0.00  0.00    +0.166 C 
BRANCH  16  17
ATOM     17  C   SER A   6      21.188  84.922  68.822  0.00  0.00    +0.229 C 
ATOM     18  O   SER A   6      21.832  85.843  68.335  0.00  0.00    -0.286 OA
ENDBRANCH  16  17
BRANCH  16  19
ATOM     19  CB  SER A   6      22.455  82.900  68.120  0.00  0.00    +0.165 C 
BRANCH  19  20
ATOM     20  OG  SER A   6      23.000  82.887  69.434  0.00  0.00    -0.380 OA
ATOM     21  H   SER A   6      23.114  83.818  69.752  0.00  0.00    +0.211 HD
ENDBRANCH  19  20
ENDBRANCH  16  19
ENDBRANCH  13  16
ENDBRANCH  11  12
BRANCH  11  22
ATOM     22  CB  VAL A   5      18.092  83.898  64.361  0.00  0.00    +0.027 C 
ATOM     23  CG2 VAL A   5      17.683  85.024  65.330  0.00  0.00    +0.002 C 
ATOM     24  CG1 VAL A   5      17.947  84.342  62.894  0.00  0.00    +0.002 C 
ENDBRANCH  11  22
ENDBRANCH   8  11
ENDBRANCH   6   7
BRANCH   6  25
ATOM     25  CB  LYS A   4      22.137  80.107  63.391  0.00  0.00    +0.029 C 
BRANCH  25  26
ATOM     26  CG  LYS A   4      23.426  80.798  63.769  0.00  0.00    +0.000 C 
BRANCH  26  27
ATOM     27  CD  LYS A   4      24.066  80.101  64.959  0.00  0.00    -0.024 C 
BRANCH  27  28
ATOM     28  CE  LYS A   4      25.296  80.844  65.454  0.00  0.00    -0.086 C 
BRANCH  28  29
ATOM     29  NZ  LYS A   4      26.165  79.967  66.291  0.00  0.00    +0.380 N 
ATOM     30  HZ1 LYS A   4      25.627  79.634  67.116  0.00  0.00    -0.089 HD
ATOM     31  HZ2 LYS A   4      26.994  80.507  66.611  0.00  0.00    -0.089 HD
ATOM     32  HZ3 LYS A   4      26.478  79.151  65.727  0.00  0.00    -0.089 HD
ENDBRANCH  28  29
ENDBRANCH  27  28
ENDBRANCH  26  27
ENDBRANCH  25  26
ENDBRANCH   6  25
ENDBRANCH   3   6
ENDBRANCH   1   2
BRANCH   1  34
ATOM     33  C   PHE A   2      24.076  79.102  57.785  0.00  0.00    +0.241 C 
ATOM     34  N   LYS A   3      22.883  79.145  58.370  0.00  0.00    -0.297 N 
ATOM     35  H   LYS A   3      22.343  78.263  58.479  0.00  0.00    +0.150 HD
ATOM     36  O   PHE A   2      24.747  80.108  57.559  0.00  0.00    -0.273 OA
BRANCH  33  37
ATOM     37  CA  PHE A   2      24.627  77.703  57.457  0.00  0.00    +0.153 C 
BRANCH  37  39
ATOM     38  C   PHE A   1      25.001  76.951  55.168  0.00  0.00    +0.239 C 
ATOM     39  N   PHE A   2      25.308  77.751  56.178  0.00  0.00    -0.297 N 
ATOM     40  H   PHE A   2      26.072  78.445  56.048  0.00  0.00    +0.150 HD
ATOM     41  O   PHE A   1      24.145  76.078  55.234  0.00  0.00    -0.274 OA
BRANCH  38  42
ATOM     42  CA  PHE A   1      25.756  77.182  53.880  0.00  0.00    +0.149 C 
BRANCH  42  43
ATOM     43  N   PHE A   1      26.188  75.910  53.359  0.00  0.00    -0.238 NA
ATOM     44  H   PHE A   1      25.480  75.304  52.897  0.00  0.00    +0.142 HD
ENDBRANCH  42  43
BRANCH  42  45
ATOM     45  CB  PHE A   1      24.826  77.850  52.859  0.00  0.00    +0.053 C 
BRANCH  45  46
ATOM     46  CG  PHE A   1      24.167  79.099  53.342  0.00  0.00    -0.020 A 
ATOM     47  CD2 PHE A   1      22.884  79.070  53.882  0.00  0.00    -0.004 A 
ATOM     48  CE2 PHE A   1      22.262  80.240  54.304  0.00  0.00    -0.000 A 
ATOM     49  CZ  PHE A   1      22.909  81.450  54.160  0.00  0.00    -0.000 A 
ATOM     50  CE1 PHE A   1      24.179  81.494  53.630  0.00  0.00    -0.000 A 
ATOM     51  CD1 PHE A   1      24.797  80.320  53.201  0.00  0.00    -0.004 A 
ENDBRANCH  45  46
ENDBRANCH  42  45
ENDBRANCH  38  42
ENDBRANCH  37  39
BRANCH  37  52
ATOM     52  CB  PHE A   2      25.595  77.295  58.574  0.00  0.00    +0.055 C 
BRANCH  52  53
ATOM     53  CG  PHE A   2      26.301  75.989  58.335  0.00  0.00    -0.020 A 
ATOM     54  CD2 PHE A   2      25.893  74.851  58.979  0.00  0.00    -0.004 A 
ATOM     55  CE2 PHE A   2      26.546  73.644  58.779  0.00  0.00    -0.000 A 
ATOM     56  CZ  PHE A   2      27.609  73.568  57.911  0.00  0.00    -0.000 A 
ATOM     57  CE1 PHE A   2      28.010  74.699  57.232  0.00  0.00    -0.000 A 
ATOM     58  CD1 PHE A   2      27.371  75.911  57.464  0.00  0.00    -0.004 A 
ENDBRANCH  52  53
ENDBRANCH  37  52
ENDBRANCH  33  37
ENDBRANCH   1  34
BRANCH   1  59
ATOM     59  CB  LYS A   3      21.293  80.931  57.849  0.00  0.00    +0.029 C 
BRANCH  59  60
ATOM     60  CG  LYS A   3      20.765  82.311  58.176  0.00  0.00    +0.000 C 
BRANCH  60  61
ATOM     61  CD  LYS A   3      19.804  82.837  57.103  0.00  0.00    -0.024 C 
BRANCH  61  62
ATOM     62  CE  LYS A   3      18.351  82.454  57.388  0.00  0.00    -0.086 C 
BRANCH  62  63
ATOM     63  NZ  LYS A   3      17.833  82.978  58.710  0.00  0.00    +0.380 N 
ATOM     64  HZ1 LYS A   3      18.413  82.596  59.484  0.00  0.00    -0.089 HD
ATOM     65  HZ2 LYS A   3      16.844  82.681  58.836  0.00  0.00    -0.089 HD
ATOM     66  HZ3 LYS A   3      17.887  84.017  58.715  0.00  0.00    -0.089 HD
ENDBRANCH  62  63
ENDBRANCH  61  62
ENDBRANCH  60  61
ENDBRANCH  59  60
ENDBRANCH   1  59
TORSDOF 29
REMARK  Name = ../refined-set-2016/3tf6/3tf6_pocket.pdb
REMARK  133 active torsions:
REMARK  status: ('A' for Active; 'I' for Inactive)
REMARK    1  A    between atoms: _1  and  _3
REMARK    2  A    between atoms: _3  and  _4
REMARK    3  A    between atoms: _3  and  _6
REMARK    4  A    between atoms: _6  and  _7
REMARK    5  A    between atoms: _10  and  _12
REMARK    6  A    between atoms: _12  and  _13
REMARK    7  A    between atoms: _12  and  _15
REMARK    8  A    between atoms: _15  and  _16
REMARK    9  A    between atoms: _19  and  _21
REMARK   10  A    between atoms: _21  and  _22
REMARK   11  A    between atoms: _25  and  _27
REMARK   12  A    between atoms: _27  and  _28
REMARK   13  A    between atoms: _30  and  _32
REMARK   14  A    between atoms: _32  and  _33
REMARK   15  A    between atoms: _32  and  _35
REMARK   16  A    between atoms: _35  and  _36
REMARK   17  A    between atoms: _41  and  _43
REMARK   18  A    between atoms: _43  and  _44
REMARK   19  A    between atoms: _47  and  _49
REMARK   20  A    between atoms: _49  and  _50
REMARK   21  A    between atoms: _49  and  _52
REMARK   22  A    between atoms: _52  and  _53
REMARK   23  A    between atoms: _56  and  _58
REMARK   24  A    between atoms: _58  and  _59
REMARK   25  A    between atoms: _58  and  _61
REMARK   26  A    between atoms: _61  and  _62
REMARK   27  A    between atoms: _65  and  _67
REMARK   28  A    between atoms: _67  and  _68
REMARK   29  A    between atoms: _67  and  _70
REMARK   30  A    between atoms: _70  and  _71
REMARK   31  A    between atoms: _76  and  _77
REMARK   32  A    between atoms: _79  and  _81
REMARK   33  A    between atoms: _81  and  _82
REMARK   34  A    between atoms: _81  and  _84
REMARK   35  A    between atoms: _84  and  _85
REMARK   36  A    between atoms: _95  and  _97
REMARK   37  A    between atoms: _97  and  _98
REMARK   38  A    between atoms: _97  and  _100
REMARK   39  A    between atoms: _100  and  _101
REMARK   40  A    between atoms: _101  and  _102
REMARK   41  A    between atoms: _102  and  _103
REMARK   42  A    between atoms: _112  and  _114
REMARK   43  A    between atoms: _114  and  _115
REMARK   44  A    between atoms: _114  and  _117
REMARK   45  A    between atoms: _117  and  _118
REMARK   46  A    between atoms: _124  and  _126
REMARK   47  A    between atoms: _126  and  _127
REMARK   48  A    between atoms: _126  and  _129
REMARK   49  A    between atoms: _129  and  _130
REMARK   50  A    between atoms: _133  and  _135
REMARK   51  A    between atoms: _135  and  _136
REMARK   52  A    between atoms: _135  and  _138
REMARK   53  A    between atoms: _138  and  _139
REMARK   54  A    between atoms: _142  and  _144
REMARK   55  A    between atoms: _144  and  _145
REMARK   56  A    between atoms: _144  and  _147
REMARK   57  A    between atoms: _147  and  _148
REMARK   58  A    between atoms: _150  and  _152
REMARK   59  A    between atoms: _152  and  _153
REMARK   60  A    between atoms: _152  and  _155
REMARK   61  A    between atoms: _155  and  _156
REMARK   62  A    between atoms: _161  and  _162
REMARK   63  A    between atoms: _164  and  _166
REMARK   64  A    between atoms: _166  and  _167
REMARK   65  A    between atoms: _166  and  _169
REMARK   66  A    between atoms: _169  and  _170
REMARK   67  A    between atoms: _173  and  _175
REMARK   68  A    between atoms: _175  and  _176
REMARK   69  A    between atoms: _175  and  _178
REMARK   70  A    between atoms: _181  and  _183
REMARK   71  A    between atoms: _183  and  _184
REMARK   72  A    between atoms: _183  and  _186
REMARK   73  A    between atoms: _186  and  _187
REMARK   74  A    between atoms: _193  and  _195
REMARK   75  A    between atoms: _195  and  _196
REMARK   76  A    between atoms: _195  and  _198
REMARK   77  A    between atoms: _198  and  _199
REMARK   78  A    between atoms: _205  and  _207
REMARK   79  A    between atoms: _207  and  _208
REMARK   80  A    between atoms: _207  and  _210
REMARK   81  A    between atoms: _210  and  _211
REMARK   82  A    between atoms: _211  and  _212
REMARK   83  A    between atoms: _212  and  _213
REMARK   84  A    between atoms: _213  and  _214
REMARK   85  A    between atoms: _218  and  _220
REMARK   86  A    between atoms: _220  and  _221
REMARK   87  A    between atoms: _220  and  _223
REMARK   88  A    between atoms: _223  and  _224
REMARK   89  A    between atoms: _224  and  _225
REMARK   90  A    between atoms: _225  and  _226
REMARK   91  A    between atoms: _226  and  _227
REMARK   92  A    between atoms: _231  and  _233
REMARK   93  A    between atoms: _233  and  _234
REMARK   94  A    between atoms: _233  and  _236
REMARK   95  A    between atoms: _239  and  _241
REMARK   96  A    between atoms: _241  and  _242
REMARK   97  A    between atoms: _241  and  _244
REMARK   98  A    between atoms: _244  and  _245
REMARK   99  A    between atoms: _247  and  _249
REMARK  100  A    between atoms: _249  and  _250
REMARK  101  A    between atoms: _249  and  _252
REMARK  102  A    between atoms: _252  and  _253
REMARK  103  A    between atoms: _253  and  _254
REMARK  104  A    between atoms: _254  and  _255
REMARK  105  A    between atoms: _264  and  _266
REMARK  106  A    between atoms: _266  and  _267
REMARK  107  A    between atoms: _266  and  _269
REMARK  108  A    between atoms: _269  and  _270
REMARK  109  A    between atoms: _270  and  _271
REMARK  110  A    between atoms: _274  and  _276
REMARK  111  A    between atoms: _276  and  _277
REMARK  112  A    between atoms: _276  and  _279
REMARK  113  A    between atoms: _279  and  _280
REMARK  114  A    between atoms: _285  and  _286
REMARK  115  A    between atoms: _288  and  _290
REMARK  116  A    between atoms: _290  and  _291
REMARK  117  A    between atoms: _290  and  _293
REMARK  118  A    between atoms: _293  and  _294
REMARK  119  A    between atoms: _300  and  _302
REMARK  120  A    between atoms: _302  and  _303
REMARK  121  A    between atoms: _302  and  _305
REMARK  122  A    between atoms: _305  and  _306
REMARK  123  A    between atoms: _306  and  _307
REMARK  124  A    between atoms: _307  and  _308
REMARK  125  A    between atoms: _308  and  _309
REMARK  126  A    between atoms: _313  and  _315
REMARK  127  A    between atoms: _315  and  _316
REMARK  128  A    between atoms: _315  and  _318
REMARK  129  A    between atoms: _318  and  _319
REMARK  130  A    between atoms: _322  and  _324
REMARK  131  A    between atoms: _324  and  _325
REMARK  132  A    between atoms: _324  and  _327
REMARK  133  A    between atoms: _327  and  _328
REMARK                            x       y       z     vdW  Elec       q    Type
REMARK                         _______ _______ _______ _____ _____    ______ ____
ROOT
ATOM      1  C   TYR A   3      24.603  83.852  60.306  0.00  0.00    +0.241 C 
ATOM      2  O   TYR A   3      23.669  83.043  60.194  0.00  0.00    -0.273 OA
ATOM      3  N   PHE A   4      25.565  83.948  59.406  0.00  0.00    -0.297 N 
ATOM      4  H   PHE A   4      26.234  84.743  59.439  0.00  0.00    +0.150 HD
ENDROOT
BRANCH   3   5
ATOM      5  CA  PHE A   4      25.683  82.935  58.368  0.00  0.00    +0.153 C 
BRANCH   5   6
ATOM      6  C   PHE A   4      27.137  82.589  58.120  0.00  0.00    +0.241 C 
ATOM      7  O   PHE A   4      28.034  83.396  58.391  0.00  0.00    -0.273 OA
ATOM      8  N   LYS A   5      27.376  81.349  57.706  0.00  0.00    -0.297 N 
ATOM      9  H   LYS A   5      26.603  80.653  57.690  0.00  0.00    +0.150 HD
BRANCH   8  10
ATOM     10  CA  LYS A   5      28.697  80.959  57.278  0.00  0.00    +0.149 C 
BRANCH  10  11
ATOM     11  C   LYS A   5      28.628  79.987  56.129  0.00  0.00    +0.241 C 
ATOM     12  O   LYS A   5      27.589  79.399  55.848  0.00  0.00    -0.273 OA
ATOM     13  N   ILE A   6      29.733  79.885  55.410  0.00  0.00    -0.297 N 
ATOM     14  H   ILE A   6      30.511  80.555  55.577  0.00  0.00    +0.150 HD
BRANCH  13  15
ATOM     15  CA  ILE A   6      29.883  78.881  54.414  0.00  0.00    +0.149 C 
BRANCH  15  16
ATOM     16  C   ILE A   6      31.152  78.110  54.726  0.00  0.00    +0.241 C 
ATOM     17  O   ILE A   6      32.196  78.706  55.003  0.00  0.00    -0.273 OA
ATOM     18  N   THR A   7      31.061  76.785  54.699  0.00  0.00    -0.296 N 
ATOM     19  H   THR A   7      30.133  76.336  54.566  0.00  0.00    +0.150 HD
BRANCH  18  20
ATOM     20  CA  THR A   7      32.241  75.960  54.853  0.00  0.00    +0.164 C 
BRANCH  20  21
ATOM     21  C   THR A   7      32.585  75.351  53.529  0.00  0.00    +0.229 C 
ATOM     22  O   THR A   7      31.703  74.947  52.779  0.00  0.00    -0.286 OA
ENDBRANCH  20  21
BRANCH  20  23
ATOM     23  CB  THR A   7      32.028  74.847  55.880  0.00  0.00    +0.136 C 
ATOM     24  CG2 THR A   7      31.603  75.446  57.219  0.00  0.00    +0.034 C 
BRANCH  23  25
ATOM     25  OG1 THR A   7      31.009  73.963  55.400  0.00  0.00    -0.382 OA
ATOM     26  HG1 THR A   7      31.293  73.572  54.536  0.00  0.00    +0.210 HD
ENDBRANCH  23  25
ENDBRANCH  20  23
ENDBRANCH  18  20
ENDBRANCH  15  16
BRANCH  15  27
ATOM     27  CB  ILE A   6      30.000  79.479  53.012  0.00  0.00    +0.027 C 
ATOM     28  CG2 ILE A   6      29.840  78.368  51.985  0.00  0.00    +0.002 C 
BRANCH  27  29
ATOM     29  CG1 ILE A   6      28.947  80.565  52.786  0.00  0.00    +0.002 C 
ATOM     30  CD1 ILE A   6      29.435  81.974  53.016  0.00  0.00    +0.000 C 
ENDBRANCH  27  29
ENDBRANCH  15  27
ENDBRANCH  13  15
ENDBRANCH  10  11
BRANCH  10  31
ATOM     31  CB  LYS A   5      29.519  80.399  58.441  0.00  0.00    +0.029 C 
BRANCH  31  32
ATOM     32  CG  LYS A   5      29.005  79.110  59.037  0.00  0.00    +0.000 C 
BRANCH  32  33
ATOM     33  CD  LYS A   5      30.012  78.518  60.025  0.00  0.00    -0.024 C 
BRANCH  33  34
ATOM     34  CE  LYS A   5      29.621  77.090  60.405  0.00  0.00    -0.086 C 
BRANCH  34  35
ATOM     35  NZ  LYS A   5      30.174  76.636  61.717  0.00  0.00    +0.380 N 
ATOM     36  HZ1 LYS A   5      29.827  77.261  62.473  0.00  0.00    -0.089 HD
ATOM     37  HZ2 LYS A   5      29.865  75.661  61.903  0.00  0.00    -0.089 HD
ATOM     38  HZ3 LYS A   5      31.213  76.672  61.685  0.00  0.00    -0.089 HD
ENDBRANCH  34  35
ENDBRANCH  33  34
ENDBRANCH  32  33
ENDBRANCH  31  32
ENDBRANCH  10  31
ENDBRANCH   8  10
ENDBRANCH   5   6
BRANCH   5  39
ATOM     39  CB  PHE A   4      24.979  83.362  57.087  0.00  0.00    +0.055 C 
BRANCH  39  40
ATOM     40  CG  PHE A   4      25.670  84.459  56.333  0.00  0.00    -0.020 A 
ATOM     41  CD2 PHE A   4      25.578  85.768  56.755  0.00  0.00    -0.004 A 
ATOM     42  CE2 PHE A   4      26.181  86.787  56.044  0.00  0.00    -0.000 A 
ATOM     43  CZ  PHE A   4      26.895  86.499  54.893  0.00  0.00    -0.000 A 
ATOM     44  CE1 PHE A   4      26.993  85.194  54.457  0.00  0.00    -0.000 A 
ATOM     45  CD1 PHE A   4      26.368  84.181  55.163  0.00  0.00    -0.004 A 
ENDBRANCH  39  40
ENDBRANCH   5  39
ENDBRANCH   3   5
BRANCH   1  46
ATOM     46  CA  TYR A   3      24.701  84.784  61.508  0.00  0.00    +0.153 C 
BRANCH  46  48
ATOM     47  C   GLU A   2      22.910  86.419  61.717  0.00  0.00    +0.241 C 
ATOM     48  N   TYR A   3      23.381  85.199  61.930  0.00  0.00    -0.297 N 
ATOM     49  H   TYR A   3      22.776  84.510  62.421  0.00  0.00    +0.150 HD
ATOM     50  O   GLU A   2      23.534  87.284  61.120  0.00  0.00    -0.273 OA
BRANCH  47  51
ATOM     51  CA  GLU A   2      21.500  86.689  62.248  0.00  0.00    +0.149 C 
BRANCH  51  54
ATOM     52  C   ARG A   1      21.413  87.199  64.598  0.00  0.00    +0.238 C 
ATOM     53  O   ARG A   1      21.433  86.006  64.900  0.00  0.00    -0.274 OA
ATOM     54  N   GLU A   2      21.489  87.627  63.345  0.00  0.00    -0.297 N 
ATOM     55  H   GLU A   2      21.541  88.647  63.151  0.00  0.00    +0.150 HD
BRANCH  52  56
ATOM     56  CA  ARG A   1      21.302  88.263  65.669  0.00  0.00    +0.145 C 
BRANCH  56  57
ATOM     57  N   ARG A   1      20.377  87.824  66.708  0.00  0.00    -0.238 NA
ATOM     58  H   ARG A   1      20.687  87.117  67.405  0.00  0.00    +0.142 HD
ENDBRANCH  56  57
BRANCH  56  59
ATOM     59  CB  ARG A   1      22.672  88.564  66.262  0.00  0.00    +0.030 C 
BRANCH  59  60
ATOM     60  CG  ARG A   1      22.639  89.667  67.287  0.00  0.00    +0.045 C 
BRANCH  60  61
ATOM     61  CD  ARG A   1      24.011  89.855  67.852  0.00  0.00    +0.174 C 
BRANCH  61  62
ATOM     62  NE  ARG A   1      24.447  88.686  68.613  0.00  0.00    -0.265 N 
ATOM     63  CZ  ARG A   1      24.754  88.691  69.908  0.00  0.00    +0.342 C 
ATOM     64  NH2 ARG A   1      24.708  89.815  70.626  0.00  0.00    -0.292 N 
ATOM     65 HH21 ARG A   1      24.952  89.797  71.637  0.00  0.00    +0.255 HD
ATOM     66 HH22 ARG A   1      24.428  90.709  70.175  0.00  0.00    +0.255 HD
ATOM     67  NH1 ARG A   1      25.162  87.561  70.482  0.00  0.00    -0.292 N 
ATOM     68 HH11 ARG A   1      25.405  87.550  71.493  0.00  0.00    +0.255 HD
ATOM     69 HH12 ARG A   1      25.237  86.690  69.919  0.00  0.00    +0.255 HD
ATOM     70  HE  ARG A   1      24.523  87.782  68.104  0.00  0.00    +0.259 HD
ENDBRANCH  61  62
ENDBRANCH  60  61
ENDBRANCH  59  60
ENDBRANCH  56  59
ENDBRANCH  52  56
ENDBRANCH  51  54
BRANCH  51  71
ATOM     71  CB  GLU A   2      20.572  87.155  61.126  0.00  0.00    +0.041 C 
BRANCH  71  72
ATOM     72  CG  GLU A   2      20.339  86.054  60.116  0.00  0.00    +0.116 C 
BRANCH  72  73
ATOM     73  CD  GLU A   2      19.177  86.324  59.180  0.00  0.00    +0.365 C 
ATOM     74  OE2 GLU A   2      18.921  87.508  58.860  0.00  0.00    -0.246 OA
ATOM     75  OE1 GLU A   2      18.535  85.327  58.754  0.00  0.00    -0.246 OA
ENDBRANCH  72  73
ENDBRANCH  71  72
ENDBRANCH  51  71
ENDBRANCH  47  51
ENDBRANCH  46  48
BRANCH  46  76
ATOM     76  CB  TYR A   3      25.406  84.057  62.638  0.00  0.00    +0.055 C 
BRANCH  76  77
ATOM     77  CG  TYR A   3      25.626  84.911  63.888  0.00  0.00    -0.020 A 
ATOM     78  CD2 TYR A   3      24.773  84.812  64.973  0.00  0.00    -0.001 A 
ATOM     79  CE2 TYR A   3      24.971  85.578  66.112  0.00  0.00    +0.036 A 
ATOM     80  CZ  TYR A   3      26.033  86.454  66.166  0.00  0.00    +0.134 A 
ATOM     81  CE1 TYR A   3      26.901  86.561  65.098  0.00  0.00    +0.036 A 
ATOM     82  CD1 TYR A   3      26.701  85.778  63.978  0.00  0.00    -0.001 A 
BRANCH  80  83
ATOM     83  OH  TYR A   3      26.224  87.218  67.283  0.00  0.00    -0.506 OA
ATOM     84  HH  TYR A   3      25.516  87.016  67.945  0.00  0.00    +0.292 HD
ENDBRANCH  80  83
ENDBRANCH  76  77
ENDBRANCH  46  76
ENDBRANCH   1  46
TORSDOF 35
REMARK  Name = ../refined-set-2016/3tf6/3tf6_pocket.pdb
REMARK  133 active torsions:
REMARK  status: ('A' for Active; 'I' for Inactive)
REMARK    1  A    between atoms: _1  and  _3
REMARK    2  A    between atoms: _3  and  _4
REMARK    3  A    between atoms: _3  and  _6
REMARK    4  A    between atoms: _6  and  _7
REMARK    5  A    between atoms: _10  and  _12
REMARK    6  A    between atoms: _12  and  _13
REMARK    7  A    between atoms: _12  and  _15
REMARK    8  A    between atoms: _15  and  _16
REMARK    9  A    between atoms: _19  and  _21
REMARK   10  A    between atoms: _21  and  _22
REMARK   11  A    between atoms: _25  and  _27
REMARK   12  A    between atoms: _27  and  _28
REMARK   13  A    between atoms: _30  and  _32
REMARK   14  A    between atoms: _32  and  _33
REMARK   15  A    between atoms: _32  and  _35
REMARK   16  A    between atoms: _35  and  _36
REMARK   17  A    between atoms: _41  and  _43
REMARK   18  A    between atoms: _43  and  _44
REMARK   19  A    between atoms: _47  and  _49
REMARK   20  A    between atoms: _49  and  _50
REMARK   21  A    between atoms: _49  and  _52
REMARK   22  A    between atoms: _52  and  _53
REMARK   23  A    between atoms: _56  and  _58
REMARK   24  A    between atoms: _58  and  _59
REMARK   25  A    between atoms: _58  and  _61
REMARK   26  A    between atoms: _61  and  _62
REMARK   27  A    between atoms: _65  and  _67
REMARK   28  A    between atoms: _67  and  _68
REMARK   29  A    between atoms: _67  and  _70
REMARK   30  A    between atoms: _70  and  _71
REMARK   31  A    between atoms: _76  and  _77
REMARK   32  A    between atoms: _79  and  _81
REMARK   33  A    between atoms: _81  and  _82
REMARK   34  A    between atoms: _81  and  _84
REMARK   35  A    between atoms: _84  and  _85
REMARK   36  A    between atoms: _95  and  _97
REMARK   37  A    between atoms: _97  and  _98
REMARK   38  A    between atoms: _97  and  _100
REMARK   39  A    between atoms: _100  and  _101
REMARK   40  A    between atoms: _101  and  _102
REMARK   41  A    between atoms: _102  and  _103
REMARK   42  A    between atoms: _112  and  _114
REMARK   43  A    between atoms: _114  and  _115
REMARK   44  A    between atoms: _114  and  _117
REMARK   45  A    between atoms: _117  and  _118
REMARK   46  A    between atoms: _124  and  _126
REMARK   47  A    between atoms: _126  and  _127
REMARK   48  A    between atoms: _126  and  _129
REMARK   49  A    between atoms: _129  and  _130
REMARK   50  A    between atoms: _133  and  _135
REMARK   51  A    between atoms: _135  and  _136
REMARK   52  A    between atoms: _135  and  _138
REMARK   53  A    between atoms: _138  and  _139
REMARK   54  A    between atoms: _142  and  _144
REMARK   55  A    between atoms: _144  and  _145
REMARK   56  A    between atoms: _144  and  _147
REMARK   57  A    between atoms: _147  and  _148
REMARK   58  A    between atoms: _150  and  _152
REMARK   59  A    between atoms: _152  and  _153
REMARK   60  A    between atoms: _152  and  _155
REMARK   61  A    between atoms: _155  and  _156
REMARK   62  A    between atoms: _161  and  _162
REMARK   63  A    between atoms: _164  and  _166
REMARK   64  A    between atoms: _166  and  _167
REMARK   65  A    between atoms: _166  and  _169
REMARK   66  A    between atoms: _169  and  _170
REMARK   67  A    between atoms: _173  and  _175
REMARK   68  A    between atoms: _175  and  _176
REMARK   69  A    between atoms: _175  and  _178
REMARK   70  A    between atoms: _181  and  _183
REMARK   71  A    between atoms: _183  and  _184
REMARK   72  A    between atoms: _183  and  _186
REMARK   73  A    between atoms: _186  and  _187
REMARK   74  A    between atoms: _193  and  _195
REMARK   75  A    between atoms: _195  and  _196
REMARK   76  A    between atoms: _195  and  _198
REMARK   77  A    between atoms: _198  and  _199
REMARK   78  A    between atoms: _205  and  _207
REMARK   79  A    between atoms: _207  and  _208
REMARK   80  A    between atoms: _207  and  _210
REMARK   81  A    between atoms: _210  and  _211
REMARK   82  A    between atoms: _211  and  _212
REMARK   83  A    between atoms: _212  and  _213
REMARK   84  A    between atoms: _213  and  _214
REMARK   85  A    between atoms: _218  and  _220
REMARK   86  A    between atoms: _220  and  _221
REMARK   87  A    between atoms: _220  and  _223
REMARK   88  A    between atoms: _223  and  _224
REMARK   89  A    between atoms: _224  and  _225
REMARK   90  A    between atoms: _225  and  _226
REMARK   91  A    between atoms: _226  and  _227
REMARK   92  A    between atoms: _231  and  _233
REMARK   93  A    between atoms: _233  and  _234
REMARK   94  A    between atoms: _233  and  _236
REMARK   95  A    between atoms: _239  and  _241
REMARK   96  A    between atoms: _241  and  _242
REMARK   97  A    between atoms: _241  and  _244
REMARK   98  A    between atoms: _244  and  _245
REMARK   99  A    between atoms: _247  and  _249
REMARK  100  A    between atoms: _249  and  _250
REMARK  101  A    between atoms: _249  and  _252
REMARK  102  A    between atoms: _252  and  _253
REMARK  103  A    between atoms: _253  and  _254
REMARK  104  A    between atoms: _254  and  _255
REMARK  105  A    between atoms: _264  and  _266
REMARK  106  A    between atoms: _266  and  _267
REMARK  107  A    between atoms: _266  and  _269
REMARK  108  A    between atoms: _269  and  _270
REMARK  109  A    between atoms: _270  and  _271
REMARK  110  A    between atoms: _274  and  _276
REMARK  111  A    between atoms: _276  and  _277
REMARK  112  A    between atoms: _276  and  _279
REMARK  113  A    between atoms: _279  and  _280
REMARK  114  A    between atoms: _285  and  _286
REMARK  115  A    between atoms: _288  and  _290
REMARK  116  A    between atoms: _290  and  _291
REMARK  117  A    between atoms: _290  and  _293
REMARK  118  A    between atoms: _293  and  _294
REMARK  119  A    between atoms: _300  and  _302
REMARK  120  A    between atoms: _302  and  _303
REMARK  121  A    between atoms: _302  and  _305
REMARK  122  A    between atoms: _305  and  _306
REMARK  123  A    between atoms: _306  and  _307
REMARK  124  A    between atoms: _307  and  _308
REMARK  125  A    between atoms: _308  and  _309
REMARK  126  A    between atoms: _313  and  _315
REMARK  127  A    between atoms: _315  and  _316
REMARK  128  A    between atoms: _315  and  _318
REMARK  129  A    between atoms: _318  and  _319
REMARK  130  A    between atoms: _322  and  _324
REMARK  131  A    between atoms: _324  and  _325
REMARK  132  A    between atoms: _324  and  _327
REMARK  133  A    between atoms: _327  and  _328
REMARK                            x       y       z     vdW  Elec       q    Type
REMARK                         _______ _______ _______ _____ _____    ______ ____
ROOT
ATOM      1  O   HOH     1      29.770  83.637  60.599  0.00  0.00    +0.000 OA
ENDROOT
TORSDOF 0
REMARK  Name = ../refined-set-2016/3tf6/3tf6_pocket.pdb
REMARK  133 active torsions:
REMARK  status: ('A' for Active; 'I' for Inactive)
REMARK    1  A    between atoms: _1  and  _3
REMARK    2  A    between atoms: _3  and  _4
REMARK    3  A    between atoms: _3  and  _6
REMARK    4  A    between atoms: _6  and  _7
REMARK    5  A    between atoms: _10  and  _12
REMARK    6  A    between atoms: _12  and  _13
REMARK    7  A    between atoms: _12  and  _15
REMARK    8  A    between atoms: _15  and  _16
REMARK    9  A    between atoms: _19  and  _21
REMARK   10  A    between atoms: _21  and  _22
REMARK   11  A    between atoms: _25  and  _27
REMARK   12  A    between atoms: _27  and  _28
REMARK   13  A    between atoms: _30  and  _32
REMARK   14  A    between atoms: _32  and  _33
REMARK   15  A    between atoms: _32  and  _35
REMARK   16  A    between atoms: _35  and  _36
REMARK   17  A    between atoms: _41  and  _43
REMARK   18  A    between atoms: _43  and  _44
REMARK   19  A    between atoms: _47  and  _49
REMARK   20  A    between atoms: _49  and  _50
REMARK   21  A    between atoms: _49  and  _52
REMARK   22  A    between atoms: _52  and  _53
REMARK   23  A    between atoms: _56  and  _58
REMARK   24  A    between atoms: _58  and  _59
REMARK   25  A    between atoms: _58  and  _61
REMARK   26  A    between atoms: _61  and  _62
REMARK   27  A    between atoms: _65  and  _67
REMARK   28  A    between atoms: _67  and  _68
REMARK   29  A    between atoms: _67  and  _70
REMARK   30  A    between atoms: _70  and  _71
REMARK   31  A    between atoms: _76  and  _77
REMARK   32  A    between atoms: _79  and  _81
REMARK   33  A    between atoms: _81  and  _82
REMARK   34  A    between atoms: _81  and  _84
REMARK   35  A    between atoms: _84  and  _85
REMARK   36  A    between atoms: _95  and  _97
REMARK   37  A    between atoms: _97  and  _98
REMARK   38  A    between atoms: _97  and  _100
REMARK   39  A    between atoms: _100  and  _101
REMARK   40  A    between atoms: _101  and  _102
REMARK   41  A    between atoms: _102  and  _103
REMARK   42  A    between atoms: _112  and  _114
REMARK   43  A    between atoms: _114  and  _115
REMARK   44  A    between atoms: _114  and  _117
REMARK   45  A    between atoms: _117  and  _118
REMARK   46  A    between atoms: _124  and  _126
REMARK   47  A    between atoms: _126  and  _127
REMARK   48  A    between atoms: _126  and  _129
REMARK   49  A    between atoms: _129  and  _130
REMARK   50  A    between atoms: _133  and  _135
REMARK   51  A    between atoms: _135  and  _136
REMARK   52  A    between atoms: _135  and  _138
REMARK   53  A    between atoms: _138  and  _139
REMARK   54  A    between atoms: _142  and  _144
REMARK   55  A    between atoms: _144  and  _145
REMARK   56  A    between atoms: _144  and  _147
REMARK   57  A    between atoms: _147  and  _148
REMARK   58  A    between atoms: _150  and  _152
REMARK   59  A    between atoms: _152  and  _153
REMARK   60  A    between atoms: _152  and  _155
REMARK   61  A    between atoms: _155  and  _156
REMARK   62  A    between atoms: _161  and  _162
REMARK   63  A    between atoms: _164  and  _166
REMARK   64  A    between atoms: _166  and  _167
REMARK   65  A    between atoms: _166  and  _169
REMARK   66  A    between atoms: _169  and  _170
REMARK   67  A    between atoms: _173  and  _175
REMARK   68  A    between atoms: _175  and  _176
REMARK   69  A    between atoms: _175  and  _178
REMARK   70  A    between atoms: _181  and  _183
REMARK   71  A    between atoms: _183  and  _184
REMARK   72  A    between atoms: _183  and  _186
REMARK   73  A    between atoms: _186  and  _187
REMARK   74  A    between atoms: _193  and  _195
REMARK   75  A    between atoms: _195  and  _196
REMARK   76  A    between atoms: _195  and  _198
REMARK   77  A    between atoms: _198  and  _199
REMARK   78  A    between atoms: _205  and  _207
REMARK   79  A    between atoms: _207  and  _208
REMARK   80  A    between atoms: _207  and  _210
REMARK   81  A    between atoms: _210  and  _211
REMARK   82  A    between atoms: _211  and  _212
REMARK   83  A    between atoms: _212  and  _213
REMARK   84  A    between atoms: _213  and  _214
REMARK   85  A    between atoms: _218  and  _220
REMARK   86  A    between atoms: _220  and  _221
REMARK   87  A    between atoms: _220  and  _223
REMARK   88  A    between atoms: _223  and  _224
REMARK   89  A    between atoms: _224  and  _225
REMARK   90  A    between atoms: _225  and  _226
REMARK   91  A    between atoms: _226  and  _227
REMARK   92  A    between atoms: _231  and  _233
REMARK   93  A    between atoms: _233  and  _234
REMARK   94  A    between atoms: _233  and  _236
REMARK   95  A    between atoms: _239  and  _241
REMARK   96  A    between atoms: _241  and  _242
REMARK   97  A    between atoms: _241  and  _244
REMARK   98  A    between atoms: _244  and  _245
REMARK   99  A    between atoms: _247  and  _249
REMARK  100  A    between atoms: _249  and  _250
REMARK  101  A    between atoms: _249  and  _252
REMARK  102  A    between atoms: _252  and  _253
REMARK  103  A    between atoms: _253  and  _254
REMARK  104  A    between atoms: _254  and  _255
REMARK  105  A    between atoms: _264  and  _266
REMARK  106  A    between atoms: _266  and  _267
REMARK  107  A    between atoms: _266  and  _269
REMARK  108  A    between atoms: _269  and  _270
REMARK  109  A    between atoms: _270  and  _271
REMARK  110  A    between atoms: _274  and  _276
REMARK  111  A    between atoms: _276  and  _277
REMARK  112  A    between atoms: _276  and  _279
REMARK  113  A    between atoms: _279  and  _280
REMARK  114  A    between atoms: _285  and  _286
REMARK  115  A    between atoms: _288  and  _290
REMARK  116  A    between atoms: _290  and  _291
REMARK  117  A    between atoms: _290  and  _293
REMARK  118  A    between atoms: _293  and  _294
REMARK  119  A    between atoms: _300  and  _302
REMARK  120  A    between atoms: _302  and  _303
REMARK  121  A    between atoms: _302  and  _305
REMARK  122  A    between atoms: _305  and  _306
REMARK  123  A    between atoms: _306  and  _307
REMARK  124  A    between atoms: _307  and  _308
REMARK  125  A    between atoms: _308  and  _309
REMARK  126  A    between atoms: _313  and  _315
REMARK  127  A    between atoms: _315  and  _316
REMARK  128  A    between atoms: _315  and  _318
REMARK  129  A    between atoms: _318  and  _319
REMARK  130  A    between atoms: _322  and  _324
REMARK  131  A    between atoms: _324  and  _325
REMARK  132  A    between atoms: _324  and  _327
REMARK  133  A    between atoms: _327  and  _328
REMARK                            x       y       z     vdW  Elec       q    Type
REMARK                         _______ _______ _______ _____ _____    ______ ____
ROOT
ATOM      1  O   HOH     1      18.382  80.704  60.332  0.00  0.00    +0.000 OA
ENDROOT
TORSDOF 0
REMARK  Name = ../refined-set-2016/3tf6/3tf6_pocket.pdb
REMARK  133 active torsions:
REMARK  status: ('A' for Active; 'I' for Inactive)
REMARK    1  A    between atoms: _1  and  _3
REMARK    2  A    between atoms: _3  and  _4
REMARK    3  A    between atoms: _3  and  _6
REMARK    4  A    between atoms: _6  and  _7
REMARK    5  A    between atoms: _10  and  _12
REMARK    6  A    between atoms: _12  and  _13
REMARK    7  A    between atoms: _12  and  _15
REMARK    8  A    between atoms: _15  and  _16
REMARK    9  A    between atoms: _19  and  _21
REMARK   10  A    between atoms: _21  and  _22
REMARK   11  A    between atoms: _25  and  _27
REMARK   12  A    between atoms: _27  and  _28
REMARK   13  A    between atoms: _30  and  _32
REMARK   14  A    between atoms: _32  and  _33
REMARK   15  A    between atoms: _32  and  _35
REMARK   16  A    between atoms: _35  and  _36
REMARK   17  A    between atoms: _41  and  _43
REMARK   18  A    between atoms: _43  and  _44
REMARK   19  A    between atoms: _47  and  _49
REMARK   20  A    between atoms: _49  and  _50
REMARK   21  A    between atoms: _49  and  _52
REMARK   22  A    between atoms: _52  and  _53
REMARK   23  A    between atoms: _56  and  _58
REMARK   24  A    between atoms: _58  and  _59
REMARK   25  A    between atoms: _58  and  _61
REMARK   26  A    between atoms: _61  and  _62
REMARK   27  A    between atoms: _65  and  _67
REMARK   28  A    between atoms: _67  and  _68
REMARK   29  A    between atoms: _67  and  _70
REMARK   30  A    between atoms: _70  and  _71
REMARK   31  A    between atoms: _76  and  _77
REMARK   32  A    between atoms: _79  and  _81
REMARK   33  A    between atoms: _81  and  _82
REMARK   34  A    between atoms: _81  and  _84
REMARK   35  A    between atoms: _84  and  _85
REMARK   36  A    between atoms: _95  and  _97
REMARK   37  A    between atoms: _97  and  _98
REMARK   38  A    between atoms: _97  and  _100
REMARK   39  A    between atoms: _100  and  _101
REMARK   40  A    between atoms: _101  and  _102
REMARK   41  A    between atoms: _102  and  _103
REMARK   42  A    between atoms: _112  and  _114
REMARK   43  A    between atoms: _114  and  _115
REMARK   44  A    between atoms: _114  and  _117
REMARK   45  A    between atoms: _117  and  _118
REMARK   46  A    between atoms: _124  and  _126
REMARK   47  A    between atoms: _126  and  _127
REMARK   48  A    between atoms: _126  and  _129
REMARK   49  A    between atoms: _129  and  _130
REMARK   50  A    between atoms: _133  and  _135
REMARK   51  A    between atoms: _135  and  _136
REMARK   52  A    between atoms: _135  and  _138
REMARK   53  A    between atoms: _138  and  _139
REMARK   54  A    between atoms: _142  and  _144
REMARK   55  A    between atoms: _144  and  _145
REMARK   56  A    between atoms: _144  and  _147
REMARK   57  A    between atoms: _147  and  _148
REMARK   58  A    between atoms: _150  and  _152
REMARK   59  A    between atoms: _152  and  _153
REMARK   60  A    between atoms: _152  and  _155
REMARK   61  A    between atoms: _155  and  _156
REMARK   62  A    between atoms: _161  and  _162
REMARK   63  A    between atoms: _164  and  _166
REMARK   64  A    between atoms: _166  and  _167
REMARK   65  A    between atoms: _166  and  _169
REMARK   66  A    between atoms: _169  and  _170
REMARK   67  A    between atoms: _173  and  _175
REMARK   68  A    between atoms: _175  and  _176
REMARK   69  A    between atoms: _175  and  _178
REMARK   70  A    between atoms: _181  and  _183
REMARK   71  A    between atoms: _183  and  _184
REMARK   72  A    between atoms: _183  and  _186
REMARK   73  A    between atoms: _186  and  _187
REMARK   74  A    between atoms: _193  and  _195
REMARK   75  A    between atoms: _195  and  _196
REMARK   76  A    between atoms: _195  and  _198
REMARK   77  A    between atoms: _198  and  _199
REMARK   78  A    between atoms: _205  and  _207
REMARK   79  A    between atoms: _207  and  _208
REMARK   80  A    between atoms: _207  and  _210
REMARK   81  A    between atoms: _210  and  _211
REMARK   82  A    between atoms: _211  and  _212
REMARK   83  A    between atoms: _212  and  _213
REMARK   84  A    between atoms: _213  and  _214
REMARK   85  A    between atoms: _218  and  _220
REMARK   86  A    between atoms: _220  and  _221
REMARK   87  A    between atoms: _220  and  _223
REMARK   88  A    between atoms: _223  and  _224
REMARK   89  A    between atoms: _224  and  _225
REMARK   90  A    between atoms: _225  and  _226
REMARK   91  A    between atoms: _226  and  _227
REMARK   92  A    between atoms: _231  and  _233
REMARK   93  A    between atoms: _233  and  _234
REMARK   94  A    between atoms: _233  and  _236
REMARK   95  A    between atoms: _239  and  _241
REMARK   96  A    between atoms: _241  and  _242
REMARK   97  A    between atoms: _241  and  _244
REMARK   98  A    between atoms: _244  and  _245
REMARK   99  A    between atoms: _247  and  _249
REMARK  100  A    between atoms: _249  and  _250
REMARK  101  A    between atoms: _249  and  _252
REMARK  102  A    between atoms: _252  and  _253
REMARK  103  A    between atoms: _253  and  _254
REMARK  104  A    between atoms: _254  and  _255
REMARK  105  A    between atoms: _264  and  _266
REMARK  106  A    between atoms: _266  and  _267
REMARK  107  A    between atoms: _266  and  _269
REMARK  108  A    between atoms: _269  and  _270
REMARK  109  A    between atoms: _270  and  _271
REMARK  110  A    between atoms: _274  and  _276
REMARK  111  A    between atoms: _276  and  _277
REMARK  112  A    between atoms: _276  and  _279
REMARK  113  A    between atoms: _279  and  _280
REMARK  114  A    between atoms: _285  and  _286
REMARK  115  A    between atoms: _288  and  _290
REMARK  116  A    between atoms: _290  and  _291
REMARK  117  A    between atoms: _290  and  _293
REMARK  118  A    between atoms: _293  and  _294
REMARK  119  A    between atoms: _300  and  _302
REMARK  120  A    between atoms: _302  and  _303
REMARK  121  A    between atoms: _302  and  _305
REMARK  122  A    between atoms: _305  and  _306
REMARK  123  A    between atoms: _306  and  _307
REMARK  124  A    between atoms: _307  and  _308
REMARK  125  A    between atoms: _308  and  _309
REMARK  126  A    between atoms: _313  and  _315
REMARK  127  A    between atoms: _315  and  _316
REMARK  128  A    between atoms: _315  and  _318
REMARK  129  A    between atoms: _318  and  _319
REMARK  130  A    between atoms: _322  and  _324
REMARK  131  A    between atoms: _324  and  _325
REMARK  132  A    between atoms: _324  and  _327
REMARK  133  A    between atoms: _327  and  _328
REMARK                            x       y       z     vdW  Elec       q    Type
REMARK                         _______ _______ _______ _____ _____    ______ ____
ROOT
ATOM      1  O   HOH     1      32.972  77.481  62.412  0.00  0.00    +0.000 OA
ENDROOT
TORSDOF 0
REMARK  Name = ../refined-set-2016/3tf6/3tf6_pocket.pdb
REMARK  133 active torsions:
REMARK  status: ('A' for Active; 'I' for Inactive)
REMARK    1  A    between atoms: _1  and  _3
REMARK    2  A    between atoms: _3  and  _4
REMARK    3  A    between atoms: _3  and  _6
REMARK    4  A    between atoms: _6  and  _7
REMARK    5  A    between atoms: _10  and  _12
REMARK    6  A    between atoms: _12  and  _13
REMARK    7  A    between atoms: _12  and  _15
REMARK    8  A    between atoms: _15  and  _16
REMARK    9  A    between atoms: _19  and  _21
REMARK   10  A    between atoms: _21  and  _22
REMARK   11  A    between atoms: _25  and  _27
REMARK   12  A    between atoms: _27  and  _28
REMARK   13  A    between atoms: _30  and  _32
REMARK   14  A    between atoms: _32  and  _33
REMARK   15  A    between atoms: _32  and  _35
REMARK   16  A    between atoms: _35  and  _36
REMARK   17  A    between atoms: _41  and  _43
REMARK   18  A    between atoms: _43  and  _44
REMARK   19  A    between atoms: _47  and  _49
REMARK   20  A    between atoms: _49  and  _50
REMARK   21  A    between atoms: _49  and  _52
REMARK   22  A    between atoms: _52  and  _53
REMARK   23  A    between atoms: _56  and  _58
REMARK   24  A    between atoms: _58  and  _59
REMARK   25  A    between atoms: _58  and  _61
REMARK   26  A    between atoms: _61  and  _62
REMARK   27  A    between atoms: _65  and  _67
REMARK   28  A    between atoms: _67  and  _68
REMARK   29  A    between atoms: _67  and  _70
REMARK   30  A    between atoms: _70  and  _71
REMARK   31  A    between atoms: _76  and  _77
REMARK   32  A    between atoms: _79  and  _81
REMARK   33  A    between atoms: _81  and  _82
REMARK   34  A    between atoms: _81  and  _84
REMARK   35  A    between atoms: _84  and  _85
REMARK   36  A    between atoms: _95  and  _97
REMARK   37  A    between atoms: _97  and  _98
REMARK   38  A    between atoms: _97  and  _100
REMARK   39  A    between atoms: _100  and  _101
REMARK   40  A    between atoms: _101  and  _102
REMARK   41  A    between atoms: _102  and  _103
REMARK   42  A    between atoms: _112  and  _114
REMARK   43  A    between atoms: _114  and  _115
REMARK   44  A    between atoms: _114  and  _117
REMARK   45  A    between atoms: _117  and  _118
REMARK   46  A    between atoms: _124  and  _126
REMARK   47  A    between atoms: _126  and  _127
REMARK   48  A    between atoms: _126  and  _129
REMARK   49  A    between atoms: _129  and  _130
REMARK   50  A    between atoms: _133  and  _135
REMARK   51  A    between atoms: _135  and  _136
REMARK   52  A    between atoms: _135  and  _138
REMARK   53  A    between atoms: _138  and  _139
REMARK   54  A    between atoms: _142  and  _144
REMARK   55  A    between atoms: _144  and  _145
REMARK   56  A    between atoms: _144  and  _147
REMARK   57  A    between atoms: _147  and  _148
REMARK   58  A    between atoms: _150  and  _152
REMARK   59  A    between atoms: _152  and  _153
REMARK   60  A    between atoms: _152  and  _155
REMARK   61  A    between atoms: _155  and  _156
REMARK   62  A    between atoms: _161  and  _162
REMARK   63  A    between atoms: _164  and  _166
REMARK   64  A    between atoms: _166  and  _167
REMARK   65  A    between atoms: _166  and  _169
REMARK   66  A    between atoms: _169  and  _170
REMARK   67  A    between atoms: _173  and  _175
REMARK   68  A    between atoms: _175  and  _176
REMARK   69  A    between atoms: _175  and  _178
REMARK   70  A    between atoms: _181  and  _183
REMARK   71  A    between atoms: _183  and  _184
REMARK   72  A    between atoms: _183  and  _186
REMARK   73  A    between atoms: _186  and  _187
REMARK   74  A    between atoms: _193  and  _195
REMARK   75  A    between atoms: _195  and  _196
REMARK   76  A    between atoms: _195  and  _198
REMARK   77  A    between atoms: _198  and  _199
REMARK   78  A    between atoms: _205  and  _207
REMARK   79  A    between atoms: _207  and  _208
REMARK   80  A    between atoms: _207  and  _210
REMARK   81  A    between atoms: _210  and  _211
REMARK   82  A    between atoms: _211  and  _212
REMARK   83  A    between atoms: _212  and  _213
REMARK   84  A    between atoms: _213  and  _214
REMARK   85  A    between atoms: _218  and  _220
REMARK   86  A    between atoms: _220  and  _221
REMARK   87  A    between atoms: _220  and  _223
REMARK   88  A    between atoms: _223  and  _224
REMARK   89  A    between atoms: _224  and  _225
REMARK   90  A    between atoms: _225  and  _226
REMARK   91  A    between atoms: _226  and  _227
REMARK   92  A    between atoms: _231  and  _233
REMARK   93  A    between atoms: _233  and  _234
REMARK   94  A    between atoms: _233  and  _236
REMARK   95  A    between atoms: _239  and  _241
REMARK   96  A    between atoms: _241  and  _242
REMARK   97  A    between atoms: _241  and  _244
REMARK   98  A    between atoms: _244  and  _245
REMARK   99  A    between atoms: _247  and  _249
REMARK  100  A    between atoms: _249  and  _250
REMARK  101  A    between atoms: _249  and  _252
REMARK  102  A    between atoms: _252  and  _253
REMARK  103  A    between atoms: _253  and  _254
REMARK  104  A    between atoms: _254  and  _255
REMARK  105  A    between atoms: _264  and  _266
REMARK  106  A    between atoms: _266  and  _267
REMARK  107  A    between atoms: _266  and  _269
REMARK  108  A    between atoms: _269  and  _270
REMARK  109  A    between atoms: _270  and  _271
REMARK  110  A    between atoms: _274  and  _276
REMARK  111  A    between atoms: _276  and  _277
REMARK  112  A    between atoms: _276  and  _279
REMARK  113  A    between atoms: _279  and  _280
REMARK  114  A    between atoms: _285  and  _286
REMARK  115  A    between atoms: _288  and  _290
REMARK  116  A    between atoms: _290  and  _291
REMARK  117  A    between atoms: _290  and  _293
REMARK  118  A    between atoms: _293  and  _294
REMARK  119  A    between atoms: _300  and  _302
REMARK  120  A    between atoms: _302  and  _303
REMARK  121  A    between atoms: _302  and  _305
REMARK  122  A    between atoms: _305  and  _306
REMARK  123  A    between atoms: _306  and  _307
REMARK  124  A    between atoms: _307  and  _308
REMARK  125  A    between atoms: _308  and  _309
REMARK  126  A    between atoms: _313  and  _315
REMARK  127  A    between atoms: _315  and  _316
REMARK  128  A    between atoms: _315  and  _318
REMARK  129  A    between atoms: _318  and  _319
REMARK  130  A    between atoms: _322  and  _324
REMARK  131  A    between atoms: _324  and  _325
REMARK  132  A    between atoms: _324  and  _327
REMARK  133  A    between atoms: _327  and  _328
REMARK                            x       y       z     vdW  Elec       q    Type
REMARK                         _______ _______ _______ _____ _____    ______ ____
ROOT
ATOM      1  O   HOH     1      36.556  84.447  63.412  0.00  0.00    +0.000 OA
ENDROOT
TORSDOF 0
